M0001
 OpenBabel03062318273D

126147  0  0  1  0  0  0  0  0999 V2000
    1.5529    2.8577   -4.1421 N   0  0  0  0  0  0  0  0  0  0  0  0
    1.4508    4.2371   -3.7289 C   0  0  1  0  0  0  0  0  0  0  0  0
   -0.0887    4.4863   -3.7098 C   0  0  1  0  0  0  0  0  0  0  0  0
   -0.6222    3.3130   -4.3391 N   0  0  0  0  0  0  0  0  0  0  0  0
    0.3448    2.3586   -4.6111 C   0  0  0  0  0  0  0  0  0  0  0  0
    1.8515    4.5435   -2.3868 N   0  0  0  0  0  0  0  0  0  0  0  0
    0.7796    4.7974   -1.5464 C   0  0  0  0  0  0  0  0  0  0  0  0
   -0.3738    4.6585   -2.3058 N   0  0  0  0  0  0  0  0  0  0  0  0
    0.1772    1.3180   -5.2009 O   0  0  0  0  0  0  0  0  0  0  0  0
    0.8423    5.1367   -0.3889 O   0  0  0  0  0  0  0  0  0  0  0  0
   -2.9214    2.7985   -3.7293 N   0  0  0  0  0  0  0  0  0  0  0  0
   -3.4931    3.7249   -2.7933 C   0  0  1  0  0  0  0  0  0  0  0  0
   -4.6156    2.8920   -2.0996 C   0  0  1  0  0  0  0  0  0  0  0  0
   -4.4142    1.5636   -2.6241 N   0  0  0  0  0  0  0  0  0  0  0  0
   -3.4930    1.5379   -3.6626 C   0  0  0  0  0  0  0  0  0  0  0  0
   -2.6576    4.1359   -1.6933 N   0  0  0  0  0  0  0  0  0  0  0  0
   -3.2155    3.8333   -0.4592 C   0  0  0  0  0  0  0  0  0  0  0  0
   -4.3545    3.0831   -0.7022 N   0  0  0  0  0  0  0  0  0  0  0  0
   -3.2757    0.6125   -4.4076 O   0  0  0  0  0  0  0  0  0  0  0  0
   -2.8194    4.2058    0.6193 O   0  0  0  0  0  0  0  0  0  0  0  0
    5.0056   -1.4926   -0.6109 N   0  0  0  0  0  0  0  0  0  0  0  0
    5.7147   -1.0988    0.5839 C   0  0  2  0  0  0  0  0  0  0  0  0
    5.1953   -2.1115    1.6493 C   0  0  2  0  0  0  0  0  0  0  0  0
    4.4886   -3.0825    0.8659 N   0  0  0  0  0  0  0  0  0  0  0  0
    4.3817   -2.7249   -0.4686 C   0  0  0  0  0  0  0  0  0  0  0  0
    5.3768    0.1754    1.1475 N   0  0  0  0  0  0  0  0  0  0  0  0
    4.6091    0.0717    2.2965 C   0  0  0  0  0  0  0  0  0  0  0  0
    4.4051   -1.2821    2.5283 N   0  0  0  0  0  0  0  0  0  0  0  0
    3.8927   -3.3898   -1.3504 O   0  0  0  0  0  0  0  0  0  0  0  0
    4.2415    0.9850    2.9962 O   0  0  0  0  0  0  0  0  0  0  0  0
   -1.8053   -4.5483    2.3554 N   0  0  0  0  0  0  0  0  0  0  0  0
   -2.4453   -3.9637    3.4973 C   0  0  2  0  0  0  0  0  0  0  0  0
   -3.7580   -3.3644    2.9057 C   0  0  2  0  0  0  0  0  0  0  0  0
   -3.5564   -3.4793    1.4815 N   0  0  0  0  0  0  0  0  0  0  0  0
   -2.4593   -4.2690    1.1663 C   0  0  0  0  0  0  0  0  0  0  0  0
   -1.8015   -2.8165    4.0919 N   0  0  0  0  0  0  0  0  0  0  0  0
   -2.6485   -1.7183    4.1660 C   0  0  0  0  0  0  0  0  0  0  0  0
   -3.7906   -2.0374    3.4487 N   0  0  0  0  0  0  0  0  0  0  0  0
   -2.1644   -4.6873    0.0722 O   0  0  0  0  0  0  0  0  0  0  0  0
   -2.4552   -0.7020    4.7892 O   0  0  0  0  0  0  0  0  0  0  0  0
   -5.2945   -0.2204   -1.2302 N   0  0  0  0  0  0  0  0  0  0  0  0
   -5.8459    0.2258    0.0157 C   0  0  1  0  0  0  0  0  0  0  0  0
   -5.6679   -1.0107    0.9500 C   0  0  1  0  0  0  0  0  0  0  0  0
   -4.8326   -1.8929    0.1714 N   0  0  0  0  0  0  0  0  0  0  0  0
   -4.7009   -1.4690   -1.1441 C   0  0  0  0  0  0  0  0  0  0  0  0
   -5.1301    1.2688    0.7116 N   0  0  0  0  0  0  0  0  0  0  0  0
   -4.7914    0.8990    2.0068 C   0  0  0  0  0  0  0  0  0  0  0  0
   -5.0874   -0.4487    2.1354 N   0  0  0  0  0  0  0  0  0  0  0  0
   -4.2171   -2.0955   -2.0563 O   0  0  0  0  0  0  0  0  0  0  0  0
   -4.3771    1.6272    2.8768 O   0  0  0  0  0  0  0  0  0  0  0  0
    3.9915   -4.3377    1.3579 C   0  0  0  0  0  0  0  0  0  0  0  0
   -1.6345    5.1396   -1.8083 C   0  0  0  0  0  0  0  0  0  0  0  0
    3.9093   -1.7321    3.8021 C   0  0  0  0  0  0  0  0  0  0  0  0
   -1.9864    3.1523   -4.7623 C   0  0  0  0  0  0  0  0  0  0  0  0
    3.6041    1.7614   -3.4560 N   0  0  0  0  0  0  0  0  0  0  0  0
    4.4840    2.5831   -2.6727 C   0  0  2  0  0  0  0  0  0  0  0  0
    5.3072    1.5453   -1.8445 C   0  0  2  0  0  0  0  0  0  0  0  0
    4.7433    0.2819   -2.2388 N   0  0  0  0  0  0  0  0  0  0  0  0
    3.7887    0.4058   -3.2367 C   0  0  0  0  0  0  0  0  0  0  0  0
    3.8738    3.4069   -1.6623 N   0  0  0  0  0  0  0  0  0  0  0  0
    4.3024    3.0925   -0.3814 C   0  0  0  0  0  0  0  0  0  0  0  0
    5.0887    1.9554   -0.4841 N   0  0  0  0  0  0  0  0  0  0  0  0
    3.2633   -0.4969   -3.8433 O   0  0  0  0  0  0  0  0  0  0  0  0
    4.0840    3.7250    0.6242 O   0  0  0  0  0  0  0  0  0  0  0  0
    2.7931    2.2428   -4.5385 C   0  0  0  0  0  0  0  0  0  0  0  0
    3.2110    4.6541   -1.9367 C   0  0  0  0  0  0  0  0  0  0  0  0
    5.8204    1.4460    0.6441 C   0  0  0  0  0  0  0  0  0  0  0  0
    5.3270   -0.9914   -1.9213 C   0  0  0  0  0  0  0  0  0  0  0  0
   -5.3708    0.4981   -2.4706 C   0  0  0  0  0  0  0  0  0  0  0  0
   -5.2246    2.6622    0.3587 C   0  0  0  0  0  0  0  0  0  0  0  0
   -4.6019   -3.2699    0.5168 C   0  0  0  0  0  0  0  0  0  0  0  0
   -4.9170   -1.1467    3.3805 C   0  0  0  0  0  0  0  0  0  0  0  0
    0.6037   -3.0336    4.3167 N   0  0  0  0  0  0  0  0  0  0  0  0
    1.1413   -4.2594    3.7970 C   0  0  2  0  0  0  0  0  0  0  0  0
    2.6192   -3.8897    3.4526 C   0  0  2  0  0  0  0  0  0  0  0  0
    2.6847   -2.4809    3.7412 N   0  0  0  0  0  0  0  0  0  0  0  0
    1.5219   -1.9962    4.3208 C   0  0  0  0  0  0  0  0  0  0  0  0
    0.6114   -4.7183    2.5388 N   0  0  0  0  0  0  0  0  0  0  0  0
    1.5827   -4.8187    1.5534 C   0  0  0  0  0  0  0  0  0  0  0  0
    2.7464   -4.2748    2.0741 N   0  0  0  0  0  0  0  0  0  0  0  0
    1.3604   -0.8975    4.7959 O   0  0  0  0  0  0  0  0  0  0  0  0
    1.4563   -5.3378    0.4702 O   0  0  0  0  0  0  0  0  0  0  0  0
   -0.6674   -2.9171    4.9735 C   0  0  0  0  0  0  0  0  0  0  0  0
   -0.6493   -5.3988    2.4032 C   0  0  0  0  0  0  0  0  0  0  0  0
    1.9888    4.8841   -4.4384 H   0  0  0  0  0  0  0  0  0  0  0  0
   -0.3924    5.3838   -4.2702 H   0  0  0  0  0  0  0  0  0  0  0  0
   -3.8735    4.6096   -3.3269 H   0  0  0  0  0  0  0  0  0  0  0  0
   -5.6308    3.2410   -2.3430 H   0  0  0  0  0  0  0  0  0  0  0  0
    6.8008   -1.1596    0.4164 H   0  0  0  0  0  0  0  0  0  0  0  0
    6.0021   -2.6014    2.2156 H   0  0  0  0  0  0  0  0  0  0  0  0
   -2.6239   -4.7342    4.2629 H   0  0  0  0  0  0  0  0  0  0  0  0
   -4.6629   -3.9154    3.2045 H   0  0  0  0  0  0  0  0  0  0  0  0
   -6.8975    0.5195   -0.1228 H   0  0  0  0  0  0  0  0  0  0  0  0
   -6.6168   -1.5108    1.1970 H   0  0  0  0  0  0  0  0  0  0  0  0
    4.7560   -4.7831    2.0105 H   0  0  0  0  0  0  0  0  0  0  0  0
    3.8229   -4.9789    0.4892 H   0  0  0  0  0  0  0  0  0  0  0  0
   -1.4531    5.5322   -0.8043 H   0  0  0  0  0  0  0  0  0  0  0  0
   -1.9973    5.9473   -2.4649 H   0  0  0  0  0  0  0  0  0  0  0  0
    3.7114   -0.8390    4.4007 H   0  0  0  0  0  0  0  0  0  0  0  0
    4.6799   -2.3477    4.2939 H   0  0  0  0  0  0  0  0  0  0  0  0
   -2.0012    2.3400   -5.4931 H   0  0  0  0  0  0  0  0  0  0  0  0
   -2.3182    4.0881   -5.2343 H   0  0  0  0  0  0  0  0  0  0  0  0
    5.1069    3.2036   -3.3355 H   0  0  0  0  0  0  0  0  0  0  0  0
    6.3842    1.5623   -2.0722 H   0  0  0  0  0  0  0  0  0  0  0  0
    2.5350    1.3798   -5.1580 H   0  0  0  0  0  0  0  0  0  0  0  0
    3.3825    2.9629   -5.1278 H   0  0  0  0  0  0  0  0  0  0  0  0
    3.1956    5.2162   -0.9996 H   0  0  0  0  0  0  0  0  0  0  0  0
    3.7841    5.2071   -2.6956 H   0  0  0  0  0  0  0  0  0  0  0  0
    5.6985    2.1722    1.4517 H   0  0  0  0  0  0  0  0  0  0  0  0
    6.8829    1.3614    0.3736 H   0  0  0  0  0  0  0  0  0  0  0  0
    4.9374   -1.7148   -2.6426 H   0  0  0  0  0  0  0  0  0  0  0  0
    6.4216   -0.9159   -2.0224 H   0  0  0  0  0  0  0  0  0  0  0  0
   -5.1751   -0.2194   -3.2714 H   0  0  0  0  0  0  0  0  0  0  0  0
   -6.3874    0.9063   -2.5741 H   0  0  0  0  0  0  0  0  0  0  0  0
   -4.9485    3.2330    1.2490 H   0  0  0  0  0  0  0  0  0  0  0  0
   -6.2622    2.8945    0.0731 H   0  0  0  0  0  0  0  0  0  0  0  0
   -4.3011   -3.7853   -0.3993 H   0  0  0  0  0  0  0  0  0  0  0  0
   -5.5392   -3.7065    0.8997 H   0  0  0  0  0  0  0  0  0  0  0  0
   -5.8308   -1.7203    3.5904 H   0  0  0  0  0  0  0  0  0  0  0  0
   -4.7692   -0.3866    4.1516 H   0  0  0  0  0  0  0  0  0  0  0  0
    1.0560   -5.0558    4.5524 H   0  0  0  0  0  0  0  0  0  0  0  0
    3.3575   -4.4325    4.0625 H   0  0  0  0  0  0  0  0  0  0  0  0
   -0.6439   -1.9984    5.5652 H   0  0  0  0  0  0  0  0  0  0  0  0
   -0.8005   -3.7852    5.6380 H   0  0  0  0  0  0  0  0  0  0  0  0
   -0.7712   -6.1040    3.2390 H   0  0  0  0  0  0  0  0  0  0  0  0
   -0.6114   -5.9466    1.4583 H   0  0  0  0  0  0  0  0  0  0  0  0
  1  2  1  0  0  0  0
  1 65  1  0  0  0  0
  2  3  1  0  0  0  0
  2  6  1  0  0  0  0
  2 85  1  6  0  0  0
  3  4  1  0  0  0  0
  3 86  1  6  0  0  0
  4  5  1  0  0  0  0
  4 54  1  0  0  0  0
  5  1  1  0  0  0  0
  6  7  1  0  0  0  0
  6 66  1  0  0  0  0
  7  8  1  0  0  0  0
  8  3  1  0  0  0  0
  9  5  2  0  0  0  0
 10  7  2  0  0  0  0
 11 12  1  0  0  0  0
 12 13  1  0  0  0  0
 12 16  1  0  0  0  0
 12 87  1  6  0  0  0
 13 14  1  0  0  0  0
 13 88  1  6  0  0  0
 14 15  1  0  0  0  0
 14 69  1  0  0  0  0
 15 11  1  0  0  0  0
 16 17  1  0  0  0  0
 17 18  1  0  0  0  0
 18 13  1  0  0  0  0
 18 70  1  0  0  0  0
 19 15  2  0  0  0  0
 20 17  2  0  0  0  0
 21 22  1  0  0  0  0
 21 68  1  0  0  0  0
 22 23  1  0  0  0  0
 22 26  1  0  0  0  0
 22 89  1  6  0  0  0
 23 24  1  0  0  0  0
 23 90  1  1  0  0  0
 24 25  1  0  0  0  0
 25 21  1  0  0  0  0
 26 27  1  0  0  0  0
 26 67  1  0  0  0  0
 27 28  1  0  0  0  0
 28 23  1  0  0  0  0
 28 53  1  0  0  0  0
 29 25  2  0  0  0  0
 30 27  2  0  0  0  0
 31 32  1  0  0  0  0
 31 84  1  0  0  0  0
 32 33  1  0  0  0  0
 32 36  1  0  0  0  0
 32 91  1  1  0  0  0
 33 34  1  0  0  0  0
 33 92  1  1  0  0  0
 34 35  1  0  0  0  0
 34 71  1  0  0  0  0
 35 31  1  0  0  0  0
 36 37  1  0  0  0  0
 36 83  1  0  0  0  0
 37 38  1  0  0  0  0
 38 33  1  0  0  0  0
 38 72  1  0  0  0  0
 39 35  2  0  0  0  0
 40 37  2  0  0  0  0
 41 42  1  0  0  0  0
 41 69  1  0  0  0  0
 42 43  1  0  0  0  0
 42 46  1  0  0  0  0
 42 93  1  6  0  0  0
 43 44  1  0  0  0  0
 43 94  1  1  0  0  0
 44 45  1  0  0  0  0
 45 41  1  0  0  0  0
 46 47  1  0  0  0  0
 46 70  1  0  0  0  0
 47 48  1  0  0  0  0
 48 43  1  0  0  0  0
 48 72  1  0  0  0  0
 49 45  2  0  0  0  0
 50 47  2  0  0  0  0
 51 24  1  0  0  0  0
 51 80  1  0  0  0  0
 51 95  1  0  0  0  0
 51 96  1  0  0  0  0
 52  8  1  0  0  0  0
 52 16  1  0  0  0  0
 52 97  1  0  0  0  0
 52 98  1  0  0  0  0
 53 99  1  0  0  0  0
 53100  1  0  0  0  0
 54 11  1  0  0  0  0
 54101  1  0  0  0  0
 54102  1  0  0  0  0
 55 56  1  0  0  0  0
 55 65  1  0  0  0  0
 56 57  1  0  0  0  0
 56 60  1  0  0  0  0
 56103  1  6  0  0  0
 57 58  1  0  0  0  0
 57104  1  6  0  0  0
 58 59  1  0  0  0  0
 58 68  1  0  0  0  0
 59 55  1  0  0  0  0
 60 61  1  0  0  0  0
 60 66  1  0  0  0  0
 61 62  1  0  0  0  0
 62 57  1  0  0  0  0
 62 67  1  0  0  0  0
 63 59  2  0  0  0  0
 64 61  2  0  0  0  0
 65105  1  0  0  0  0
 65106  1  0  0  0  0
 66107  1  0  0  0  0
 66108  1  0  0  0  0
 67109  1  0  0  0  0
 67110  1  0  0  0  0
 68111  1  0  0  0  0
 68112  1  0  0  0  0
 69113  1  0  0  0  0
 69114  1  0  0  0  0
 70115  1  0  0  0  0
 70116  1  0  0  0  0
 71 44  1  0  0  0  0
 71117  1  0  0  0  0
 71118  1  0  0  0  0
 72119  1  0  0  0  0
 72120  1  0  0  0  0
 73 74  1  0  0  0  0
 74 75  1  0  0  0  0
 74 78  1  0  0  0  0
 74121  1  1  0  0  0
 75 76  1  0  0  0  0
 75122  1  1  0  0  0
 76 53  1  0  0  0  0
 76 77  1  0  0  0  0
 77 73  1  0  0  0  0
 77 81  2  0  0  0  0
 78 79  1  0  0  0  0
 79 80  1  0  0  0  0
 80 75  1  0  0  0  0
 82 79  2  0  0  0  0
 83 73  1  0  0  0  0
 83123  1  0  0  0  0
 83124  1  0  0  0  0
 84 78  1  0  0  0  0
 84125  1  0  0  0  0
 84126  1  0  0  0  0
M  END
$$$$
