optlog.xyz
     RDKit          3D

173198  0  0  1  0  0  0  0  0999 V2000
   -5.2520   -2.8849   -1.2197 N   0  0  0  0  0  0  0  0  0  0  0  0
   -5.5609   -3.5977   -0.0027 C   0  0  1  0  0  0  0  0  0  0  0  0
   -4.5429   -4.7721   -0.0049 C   0  0  1  0  0  0  0  0  0  0  0  0
   -3.7892   -4.5604   -1.2189 N   0  0  0  0  0  0  0  0  0  0  0  0
   -4.2397   -3.4773   -1.9399 C   0  0  0  0  0  0  0  0  0  0  0  0
   -5.2500   -2.8879    1.2165 N   0  0  0  0  0  0  0  0  0  0  0  0
   -4.2453   -3.4901    1.9396 C   0  0  0  0  0  0  0  0  0  0  0  0
   -3.7995   -4.5743    1.2172 N   0  0  0  0  0  0  0  0  0  0  0  0
   -3.8357   -3.1257   -3.0370 O   0  0  0  0  0  0  0  0  0  0  0  0
   -3.8438   -3.1443    3.0396 O   0  0  0  0  0  0  0  0  0  0  0  0
   -1.6327   -5.6618   -1.2192 N   0  0  0  0  0  0  0  0  0  0  0  0
   -1.3661   -6.3954   -0.0038 C   0  0  1  0  0  0  0  0  0  0  0  0
    0.1814   -6.5361    0.0006 C   0  0  1  0  0  0  0  0  0  0  0  0
    0.5814   -5.8762   -1.2195 N   0  0  0  0  0  0  0  0  0  0  0  0
   -0.4902   -5.4034   -1.9430 C   0  0  0  0  0  0  0  0  0  0  0  0
   -1.6411   -5.6751    1.2168 N   0  0  0  0  0  0  0  0  0  0  0  0
   -0.5017   -5.4039    1.9408 C   0  0  0  0  0  0  0  0  0  0  0  0
    0.5758   -5.8631    1.2164 N   0  0  0  0  0  0  0  0  0  0  0  0
   -0.4398   -4.8784   -3.0440 O   0  0  0  0  0  0  0  0  0  0  0  0
   -0.4572   -4.8790    3.0422 O   0  0  0  0  0  0  0  0  0  0  0  0
   -0.5748    5.8636   -1.2157 N   0  0  0  0  0  0  0  0  0  0  0  0
   -0.1813    6.5367    0.0003 C   0  0  2  0  0  0  0  0  0  0  0  0
    1.3662    6.3959    0.0060 C   0  0  2  0  0  0  0  0  0  0  0  0
    1.6421    5.6766   -1.2150 N   0  0  0  0  0  0  0  0  0  0  0  0
    0.5032    5.4046   -1.9393 C   0  0  0  0  0  0  0  0  0  0  0  0
   -0.5823    5.8768    1.2202 N   0  0  0  0  0  0  0  0  0  0  0  0
    0.4887    5.4031    1.9440 C   0  0  0  0  0  0  0  0  0  0  0  0
    1.6318    5.6612    1.2209 N   0  0  0  0  0  0  0  0  0  0  0  0
    0.4595    4.8794   -3.0405 O   0  0  0  0  0  0  0  0  0  0  0  0
    0.4374    4.8775    3.0448 O   0  0  0  0  0  0  0  0  0  0  0  0
    5.9872    0.5809   -1.2187 N   0  0  0  0  0  0  0  0  0  0  0  0
    6.6534    0.1784   -0.0020 C   0  0  2  0  0  0  0  0  0  0  0  0
    6.5031   -1.3690   -0.0038 C   0  0  2  0  0  0  0  0  0  0  0  0
    5.7771   -1.6328   -1.2239 N   0  0  0  0  0  0  0  0  0  0  0  0
    5.5094   -0.4890   -1.9410 C   0  0  0  0  0  0  0  0  0  0  0  0
    5.9914    0.5765    1.2181 N   0  0  0  0  0  0  0  0  0  0  0  0
    5.5131   -0.4950    1.9374 C   0  0  0  0  0  0  0  0  0  0  0  0
    5.7707   -1.6368    1.2122 N   0  0  0  0  0  0  0  0  0  0  0  0
    4.9749   -0.4358   -3.0375 O   0  0  0  0  0  0  0  0  0  0  0  0
    4.9849   -0.4453    3.0370 O   0  0  0  0  0  0  0  0  0  0  0  0
    2.9014   -5.1763   -1.2190 N   0  0  0  0  0  0  0  0  0  0  0  0
    3.5990   -5.5016    0.0026 C   0  0  1  0  0  0  0  0  0  0  0  0
    4.8059   -4.5222   -0.0005 C   0  0  1  0  0  0  0  0  0  0  0  0
    4.6164   -3.7594   -1.2129 N   0  0  0  0  0  0  0  0  0  0  0  0
    3.5245   -4.1818   -1.9381 C   0  0  0  0  0  0  0  0  0  0  0  0
    2.8945   -5.1617    1.2175 N   0  0  0  0  0  0  0  0  0  0  0  0
    3.5315   -4.1786    1.9414 C   0  0  0  0  0  0  0  0  0  0  0  0
    4.6338   -3.7759    1.2230 N   0  0  0  0  0  0  0  0  0  0  0  0
    3.1884   -3.7705   -3.0374 O   0  0  0  0  0  0  0  0  0  0  0  0
    3.1971   -3.7628    3.0395 O   0  0  0  0  0  0  0  0  0  0  0  0
    2.9587    5.5920   -1.7934 C   0  0  0  0  0  0  0  0  0  0  0  0
   -2.9574   -5.5895    1.7959 C   0  0  0  0  0  0  0  0  0  0  0  0
    2.9453    5.5701    1.8054 C   0  0  0  0  0  0  0  0  0  0  0  0
   -2.9467   -5.5721   -1.8031 C   0  0  0  0  0  0  0  0  0  0  0  0
   -5.9923   -0.5779   -1.2184 N   0  0  0  0  0  0  0  0  0  0  0  0
   -6.6538   -0.1784    0.0014 C   0  0  2  0  0  0  0  0  0  0  0  0
   -6.5030    1.3690    0.0015 C   0  0  2  0  0  0  0  0  0  0  0  0
   -5.7678    1.6349   -1.2134 N   0  0  0  0  0  0  0  0  0  0  0  0
   -5.5109    0.4923   -1.9373 C   0  0  0  0  0  0  0  0  0  0  0  0
   -5.9872   -0.5797    1.2184 N   0  0  0  0  0  0  0  0  0  0  0  0
   -5.5113    0.4910    1.9408 C   0  0  0  0  0  0  0  0  0  0  0  0
   -5.7794    1.6341    1.2227 N   0  0  0  0  0  0  0  0  0  0  0  0
   -4.9808    0.4411   -3.0359 O   0  0  0  0  0  0  0  0  0  0  0  0
   -4.9780    0.4389    3.0378 O   0  0  0  0  0  0  0  0  0  0  0  0
   -6.1251   -1.8924   -1.7917 C   0  0  0  0  0  0  0  0  0  0  0  0
   -6.1218   -1.8949    1.7904 C   0  0  0  0  0  0  0  0  0  0  0  0
   -5.6575    2.9501    1.7940 C   0  0  0  0  0  0  0  0  0  0  0  0
   -5.6645    2.9491   -1.7950 C   0  0  0  0  0  0  0  0  0  0  0  0
    1.8925   -6.0263   -1.7970 C   0  0  0  0  0  0  0  0  0  0  0  0
    1.8851   -6.0089    1.7994 C   0  0  0  0  0  0  0  0  0  0  0  0
    5.6547   -2.9482   -1.7966 C   0  0  0  0  0  0  0  0  0  0  0  0
    5.6684   -2.9516    1.7922 C   0  0  0  0  0  0  0  0  0  0  0  0
    5.2508    2.8834    1.2207 N   0  0  0  0  0  0  0  0  0  0  0  0
    5.5605    3.5975    0.0046 C   0  0  2  0  0  0  0  0  0  0  0  0
    4.5429    4.7721    0.0076 C   0  0  2  0  0  0  0  0  0  0  0  0
    3.7877    4.5588    1.2205 N   0  0  0  0  0  0  0  0  0  0  0  0
    4.2375    3.4748    1.9405 C   0  0  0  0  0  0  0  0  0  0  0  0
    5.2501    2.8890   -1.2154 N   0  0  0  0  0  0  0  0  0  0  0  0
    4.2464    3.4926   -1.9388 C   0  0  0  0  0  0  0  0  0  0  0  0
    3.8006    4.5762   -1.2156 N   0  0  0  0  0  0  0  0  0  0  0  0
    3.8323    3.1217    3.0366 O   0  0  0  0  0  0  0  0  0  0  0  0
    3.8457    3.1483   -3.0395 O   0  0  0  0  0  0  0  0  0  0  0  0
    6.1236    1.8906    1.7925 C   0  0  0  0  0  0  0  0  0  0  0  0
    6.1221    1.8964   -1.7898 C   0  0  0  0  0  0  0  0  0  0  0  0
   -2.9017    5.1756    1.2173 N   0  0  0  0  0  0  0  0  0  0  0  0
   -3.5988    5.5014   -0.0045 C   0  0  2  0  0  0  0  0  0  0  0  0
   -4.8055    4.5218   -0.0026 C   0  0  2  0  0  0  0  0  0  0  0  0
   -4.6181    3.7604    1.2110 N   0  0  0  0  0  0  0  0  0  0  0  0
   -3.5262    4.1819    1.9364 C   0  0  0  0  0  0  0  0  0  0  0  0
   -2.8937    5.1626   -1.2192 N   0  0  0  0  0  0  0  0  0  0  0  0
   -3.5291    4.1785   -1.9433 C   0  0  0  0  0  0  0  0  0  0  0  0
   -4.6310    3.7741   -1.2250 N   0  0  0  0  0  0  0  0  0  0  0  0
   -3.1911    3.7707    3.0360 O   0  0  0  0  0  0  0  0  0  0  0  0
   -3.1940    3.7631   -3.0414 O   0  0  0  0  0  0  0  0  0  0  0  0
   -1.8939    6.0261    1.7964 C   0  0  0  0  0  0  0  0  0  0  0  0
   -1.8836    6.0098   -1.7999 C   0  0  0  0  0  0  0  0  0  0  0  0
   -6.6089   -3.9161   -0.0025 H   0  0  0  0  0  0  0  0  0  0  0  0
   -5.0078   -5.7641   -0.0125 H   0  0  0  0  0  0  0  0  0  0  0  0
   -1.8991   -7.3524   -0.0108 H   0  0  0  0  0  0  0  0  0  0  0  0
    0.5332   -7.5736    0.0065 H   0  0  0  0  0  0  0  0  0  0  0  0
   -0.5332    7.5742   -0.0057 H   0  0  0  0  0  0  0  0  0  0  0  0
    1.8992    7.3529    0.0142 H   0  0  0  0  0  0  0  0  0  0  0  0
    7.6926    0.5250   -0.0030 H   0  0  0  0  0  0  0  0  0  0  0  0
    7.4560   -1.9093   -0.0019 H   0  0  0  0  0  0  0  0  0  0  0  0
    3.8841   -6.5594    0.0095 H   0  0  0  0  0  0  0  0  0  0  0  0
    5.7819   -5.0194   -0.0109 H   0  0  0  0  0  0  0  0  0  0  0  0
    3.4541    6.5641   -1.6823 H   0  0  0  0  0  0  0  0  0  0  0  0
    2.8408    5.3613   -2.8526 H   0  0  0  0  0  0  0  0  0  0  0  0
   -2.8388   -5.3574    2.8547 H   0  0  0  0  0  0  0  0  0  0  0  0
   -3.4530   -6.5617    1.6863 H   0  0  0  0  0  0  0  0  0  0  0  0
    2.8222    5.3289    2.8616 H   0  0  0  0  0  0  0  0  0  0  0  0
    3.4428    6.5427    1.7056 H   0  0  0  0  0  0  0  0  0  0  0  0
   -2.8243   -5.3321   -2.8596 H   0  0  0  0  0  0  0  0  0  0  0  0
   -3.4436   -6.5447   -1.7017 H   0  0  0  0  0  0  0  0  0  0  0  0
   -7.6930   -0.5246    0.0031 H   0  0  0  0  0  0  0  0  0  0  0  0
   -7.4557    1.9097   -0.0030 H   0  0  0  0  0  0  0  0  0  0  0  0
   -5.8900   -1.8161   -2.8536 H   0  0  0  0  0  0  0  0  0  0  0  0
   -7.1624   -2.2254   -1.6682 H   0  0  0  0  0  0  0  0  0  0  0  0
   -5.8854   -1.8203    2.8521 H   0  0  0  0  0  0  0  0  0  0  0  0
   -7.1599   -2.2263    1.6670 H   0  0  0  0  0  0  0  0  0  0  0  0
   -6.6150    3.4725    1.6802 H   0  0  0  0  0  0  0  0  0  0  0  0
   -5.4298    2.8313    2.8537 H   0  0  0  0  0  0  0  0  0  0  0  0
   -6.6268    3.4617   -1.6771 H   0  0  0  0  0  0  0  0  0  0  0  0
   -5.4432    2.8263   -2.8556 H   0  0  0  0  0  0  0  0  0  0  0  0
    1.8185   -5.7801   -2.8566 H   0  0  0  0  0  0  0  0  0  0  0  0
    2.2076   -7.0707   -1.6843 H   0  0  0  0  0  0  0  0  0  0  0  0
    1.8077   -5.7543    2.8567 H   0  0  0  0  0  0  0  0  0  0  0  0
    2.2011   -7.0544    1.6960 H   0  0  0  0  0  0  0  0  0  0  0  0
    5.4254   -2.8281   -2.8558 H   0  0  0  0  0  0  0  0  0  0  0  0
    6.6125   -3.4705   -1.6849 H   0  0  0  0  0  0  0  0  0  0  0  0
    5.4489   -2.8305    2.8534 H   0  0  0  0  0  0  0  0  0  0  0  0
    6.6304   -3.4640    1.6718 H   0  0  0  0  0  0  0  0  0  0  0  0
    6.6086    3.9157    0.0054 H   0  0  0  0  0  0  0  0  0  0  0  0
    5.0080    5.7641    0.0170 H   0  0  0  0  0  0  0  0  0  0  0  0
    5.8879    1.8135    2.8542 H   0  0  0  0  0  0  0  0  0  0  0  0
    7.1610    2.2238    1.6699 H   0  0  0  0  0  0  0  0  0  0  0  0
    5.8860    1.8225   -2.8517 H   0  0  0  0  0  0  0  0  0  0  0  0
    7.1602    2.2276   -1.6659 H   0  0  0  0  0  0  0  0  0  0  0  0
   -3.8842    6.5592   -0.0109 H   0  0  0  0  0  0  0  0  0  0  0  0
   -5.7816    5.0188    0.0055 H   0  0  0  0  0  0  0  0  0  0  0  0
   -2.2093    7.0704    1.6835 H   0  0  0  0  0  0  0  0  0  0  0  0
   -1.8208    5.7798    2.8561 H   0  0  0  0  0  0  0  0  0  0  0  0
   -2.1998    7.0552   -1.6964 H   0  0  0  0  0  0  0  0  0  0  0  0
   -1.8051    5.7556   -2.8572 H   0  0  0  0  0  0  0  0  0  0  0  0
    0.4310    1.2760    0.2450 O   0  0  0  0  0  0  0  0  0  0  0  0
   -1.4390    0.7100    2.5160 C   0  0  0  0  0  0  0  0  0  0  0  0
   -0.4900    1.4460    3.1360 C   0  0  0  0  0  0  0  0  0  0  0  0
    0.8980    1.0990    3.1960 C   0  0  0  0  0  0  0  0  0  0  0  0
    1.5810    0.4400    2.2490 C   0  0  0  0  0  0  0  0  0  0  0  0
    1.0130    0.1490    0.8910 C   0  0  0  0  0  0  0  0  0  0  0  0
   -0.0750   -0.8450    1.1680 C   0  0  0  0  0  0  0  0  0  0  0  0
   -1.1950   -0.5220    1.8280 C   0  0  0  0  0  0  0  0  0  0  0  0
   -2.4770    0.9890    2.6470 H   0  0  0  0  0  0  0  0  0  0  0  0
   -0.8010    2.2870    3.7420 H   0  0  0  0  0  0  0  0  0  0  0  0
    1.4180    1.3860    4.1020 H   0  0  0  0  0  0  0  0  0  0  0  0
    2.5970    0.1190    2.4330 H   0  0  0  0  0  0  0  0  0  0  0  0
    1.7790   -0.2950    0.2420 H   0  0  0  0  0  0  0  0  0  0  0  0
    0.0570   -1.8410    0.7700 H   0  0  0  0  0  0  0  0  0  0  0  0
   -1.9940   -1.2510    1.8740 H   0  0  0  0  0  0  0  0  0  0  0  0
    0.6710    1.4590   -1.1580 C   0  0  0  0  0  0  0  0  0  0  0  0
   -0.5950    1.4800   -1.9710 C   0  0  0  0  0  0  0  0  0  0  0  0
   -1.2740    0.4420   -2.4740 C   0  0  0  0  0  0  0  0  0  0  0  0
   -0.9070   -0.9460   -2.4990 C   0  0  0  0  0  0  0  0  0  0  0  0
    0.3400   -1.4470   -2.3940 C   0  0  0  0  0  0  0  0  0  0  0  0
    1.5530   -0.6970   -2.2200 C   0  0  0  0  0  0  0  0  0  0  0  0
    1.7120    0.5420   -1.7390 C   0  0  0  0  0  0  0  0  0  0  0  0
    1.0870    2.4760   -1.1590 H   0  0  0  0  0  0  0  0  0  0  0  0
   -1.0180    2.4680   -2.0990 H   0  0  0  0  0  0  0  0  0  0  0  0
   -2.2260    0.6590   -2.9470 H   0  0  0  0  0  0  0  0  0  0  0  0
   -1.7160   -1.6350   -2.7040 H   0  0  0  0  0  0  0  0  0  0  0  0
    0.4720   -2.5130   -2.5230 H   0  0  0  0  0  0  0  0  0  0  0  0
    2.4490   -1.2230   -2.5230 H   0  0  0  0  0  0  0  0  0  0  0  0
    2.7140    0.9480   -1.7190 H   0  0  0  0  0  0  0  0  0  0  0  0
  1  2  1  0
  2 97  1  1
  2  6  1  0
  3 98  1  6
  3  2  1  0
  3  8  1  0
  4  3  1  0
  5  1  1  0
  5  4  1  0
  6 66  1  0
  6  7  1  0
  7 10  2  0
  8 52  1  0
  8  7  1  0
  9  5  2  0
 11 12  1  0
 12 99  1  6
 12 13  1  0
 12 16  1  0
 13100  1  1
 13 18  1  0
 14 13  1  0
 15 14  1  0
 15 11  1  0
 16 52  1  0
 16 17  1  0
 17 20  2  0
 18 70  1  0
 18 17  1  0
 19 15  2  0
 21 22  1  0
 22101  1  6
 22 23  1  0
 22 26  1  0
 23102  1  1
 23 28  1  0
 24 23  1  0
 25 21  1  0
 25 24  1  0
 26 95  1  0
 26 27  1  0
 27 30  2  0
 28 53  1  0
 28 27  1  0
 29 25  2  0
 31 32  1  0
 32103  1  1
 32 36  1  0
 33 32  1  0
 33104  1  6
 33 38  1  0
 34 33  1  0
 35 34  1  0
 35 31  1  0
 36 83  1  0
 36 37  1  0
 37 40  2  0
 38 72  1  0
 38 37  1  0
 39 35  2  0
 41 42  1  0
 42105  1  1
 42 46  1  0
 43106  1  6
 43 42  1  0
 43 48  1  0
 44 43  1  0
 45 41  1  0
 45 44  1  0
 46 70  1  0
 46 47  1  0
 47 50  2  0
 48 72  1  0
 48 47  1  0
 49 45  2  0
 51107  1  0
 51 80  1  0
 51 24  1  0
 52109  1  0
 53111  1  0
 54114  1  0
 54 11  1  0
 54  4  1  0
 55 56  1  0
 56 57  1  0
 56115  1  1
 56 60  1  0
 57116  1  6
 57 62  1  0
 58 57  1  0
 59 55  1  0
 59 58  1  0
 60 66  1  0
 60 61  1  0
 61 64  2  0
 62 67  1  0
 62 61  1  0
 63 59  2  0
 65118  1  0
 65  1  1  0
 65 55  1  0
 66119  1  0
 67122  1  0
 68123  1  0
 68 92  1  0
 68 58  1  0
 69126  1  0
 69 14  1  0
 69 41  1  0
 70127  1  0
 71130  1  0
 71 34  1  0
 71 44  1  0
 72131  1  0
 73 83  1  0
 73 77  1  0
 74133  1  6
 74 75  1  0
 74 73  1  0
 75134  1  1
 75 76  1  0
 76 53  1  0
 76 77  1  0
 77 81  2  0
 78 74  1  0
 79 80  1  0
 79 78  1  0
 80 75  1  0
 82 79  2  0
 83135  1  0
 84138  1  0
 84 31  1  0
 84 78  1  0
 85 95  1  0
 85 89  1  0
 86139  1  6
 86 87  1  0
 86 85  1  0
 87140  1  1
 87 88  1  0
 88 67  1  0
 88 89  1  0
 89 93  2  0
 90 86  1  0
 91 92  1  0
 91 90  1  0
 92 87  1  0
 94 91  2  0
 95142  1  0
 96143  1  0
 96 90  1  0
 96 21  1  0
108 51  1  0
110 52  1  0
112 53  1  0
113 54  1  0
117 65  1  0
120 66  1  0
121 67  1  0
124 68  1  0
125 69  1  0
128 70  1  0
129 71  1  0
132 72  1  0
136 83  1  0
137 84  1  0
141 95  1  0
144 96  1  0
145150  1  0
146153  1  0
146147  2  0
147148  1  0
147154  1  0
148155  1  0
149156  1  0
149148  2  0
150157  1  0
150151  1  0
150149  1  0
151152  2  0
152159  1  0
152146  1  0
158151  1  0
160167  1  0
160145  1  0
161160  1  0
162161  2  0
163162  1  0
163164  2  0
164165  1  0
165166  2  0
166173  1  0
166160  1  0
168161  1  0
169162  1  0
170163  1  0
171164  1  0
172165  1  0
M  END
$$$$
optlog.xyz
     RDKit          3D

173198  0  0  1  0  0  0  0  0999 V2000
   -5.2520   -2.8849   -1.2197 N   0  0  0  0  0  0  0  0  0  0  0  0
   -5.5609   -3.5977   -0.0027 C   0  0  1  0  0  0  0  0  0  0  0  0
   -4.5429   -4.7721   -0.0049 C   0  0  1  0  0  0  0  0  0  0  0  0
   -3.7892   -4.5604   -1.2189 N   0  0  0  0  0  0  0  0  0  0  0  0
   -4.2397   -3.4773   -1.9399 C   0  0  0  0  0  0  0  0  0  0  0  0
   -5.2500   -2.8879    1.2165 N   0  0  0  0  0  0  0  0  0  0  0  0
   -4.2453   -3.4901    1.9396 C   0  0  0  0  0  0  0  0  0  0  0  0
   -3.7995   -4.5743    1.2172 N   0  0  0  0  0  0  0  0  0  0  0  0
   -3.8357   -3.1257   -3.0370 O   0  0  0  0  0  0  0  0  0  0  0  0
   -3.8438   -3.1443    3.0396 O   0  0  0  0  0  0  0  0  0  0  0  0
   -1.6327   -5.6618   -1.2192 N   0  0  0  0  0  0  0  0  0  0  0  0
   -1.3661   -6.3954   -0.0038 C   0  0  1  0  0  0  0  0  0  0  0  0
    0.1814   -6.5361    0.0006 C   0  0  1  0  0  0  0  0  0  0  0  0
    0.5814   -5.8762   -1.2195 N   0  0  0  0  0  0  0  0  0  0  0  0
   -0.4902   -5.4034   -1.9430 C   0  0  0  0  0  0  0  0  0  0  0  0
   -1.6411   -5.6751    1.2168 N   0  0  0  0  0  0  0  0  0  0  0  0
   -0.5017   -5.4039    1.9408 C   0  0  0  0  0  0  0  0  0  0  0  0
    0.5758   -5.8631    1.2164 N   0  0  0  0  0  0  0  0  0  0  0  0
   -0.4398   -4.8784   -3.0440 O   0  0  0  0  0  0  0  0  0  0  0  0
   -0.4572   -4.8790    3.0422 O   0  0  0  0  0  0  0  0  0  0  0  0
   -0.5748    5.8636   -1.2157 N   0  0  0  0  0  0  0  0  0  0  0  0
   -0.1813    6.5367    0.0003 C   0  0  2  0  0  0  0  0  0  0  0  0
    1.3662    6.3959    0.0060 C   0  0  2  0  0  0  0  0  0  0  0  0
    1.6421    5.6766   -1.2150 N   0  0  0  0  0  0  0  0  0  0  0  0
    0.5032    5.4046   -1.9393 C   0  0  0  0  0  0  0  0  0  0  0  0
   -0.5823    5.8768    1.2202 N   0  0  0  0  0  0  0  0  0  0  0  0
    0.4887    5.4031    1.9440 C   0  0  0  0  0  0  0  0  0  0  0  0
    1.6318    5.6612    1.2209 N   0  0  0  0  0  0  0  0  0  0  0  0
    0.4595    4.8794   -3.0405 O   0  0  0  0  0  0  0  0  0  0  0  0
    0.4374    4.8775    3.0448 O   0  0  0  0  0  0  0  0  0  0  0  0
    5.9872    0.5809   -1.2187 N   0  0  0  0  0  0  0  0  0  0  0  0
    6.6534    0.1784   -0.0020 C   0  0  2  0  0  0  0  0  0  0  0  0
    6.5031   -1.3690   -0.0038 C   0  0  2  0  0  0  0  0  0  0  0  0
    5.7771   -1.6328   -1.2239 N   0  0  0  0  0  0  0  0  0  0  0  0
    5.5094   -0.4890   -1.9410 C   0  0  0  0  0  0  0  0  0  0  0  0
    5.9914    0.5765    1.2181 N   0  0  0  0  0  0  0  0  0  0  0  0
    5.5131   -0.4950    1.9374 C   0  0  0  0  0  0  0  0  0  0  0  0
    5.7707   -1.6368    1.2122 N   0  0  0  0  0  0  0  0  0  0  0  0
    4.9749   -0.4358   -3.0375 O   0  0  0  0  0  0  0  0  0  0  0  0
    4.9849   -0.4453    3.0370 O   0  0  0  0  0  0  0  0  0  0  0  0
    2.9014   -5.1763   -1.2190 N   0  0  0  0  0  0  0  0  0  0  0  0
    3.5990   -5.5016    0.0026 C   0  0  1  0  0  0  0  0  0  0  0  0
    4.8059   -4.5222   -0.0005 C   0  0  1  0  0  0  0  0  0  0  0  0
    4.6164   -3.7594   -1.2129 N   0  0  0  0  0  0  0  0  0  0  0  0
    3.5245   -4.1818   -1.9381 C   0  0  0  0  0  0  0  0  0  0  0  0
    2.8945   -5.1617    1.2175 N   0  0  0  0  0  0  0  0  0  0  0  0
    3.5315   -4.1786    1.9414 C   0  0  0  0  0  0  0  0  0  0  0  0
    4.6338   -3.7759    1.2230 N   0  0  0  0  0  0  0  0  0  0  0  0
    3.1884   -3.7705   -3.0374 O   0  0  0  0  0  0  0  0  0  0  0  0
    3.1971   -3.7628    3.0395 O   0  0  0  0  0  0  0  0  0  0  0  0
    2.9587    5.5920   -1.7934 C   0  0  0  0  0  0  0  0  0  0  0  0
   -2.9574   -5.5895    1.7959 C   0  0  0  0  0  0  0  0  0  0  0  0
    2.9453    5.5701    1.8054 C   0  0  0  0  0  0  0  0  0  0  0  0
   -2.9467   -5.5721   -1.8031 C   0  0  0  0  0  0  0  0  0  0  0  0
   -5.9923   -0.5779   -1.2184 N   0  0  0  0  0  0  0  0  0  0  0  0
   -6.6538   -0.1784    0.0014 C   0  0  2  0  0  0  0  0  0  0  0  0
   -6.5030    1.3690    0.0015 C   0  0  2  0  0  0  0  0  0  0  0  0
   -5.7678    1.6349   -1.2134 N   0  0  0  0  0  0  0  0  0  0  0  0
   -5.5109    0.4923   -1.9373 C   0  0  0  0  0  0  0  0  0  0  0  0
   -5.9872   -0.5797    1.2184 N   0  0  0  0  0  0  0  0  0  0  0  0
   -5.5113    0.4910    1.9408 C   0  0  0  0  0  0  0  0  0  0  0  0
   -5.7794    1.6341    1.2227 N   0  0  0  0  0  0  0  0  0  0  0  0
   -4.9808    0.4411   -3.0359 O   0  0  0  0  0  0  0  0  0  0  0  0
   -4.9780    0.4389    3.0378 O   0  0  0  0  0  0  0  0  0  0  0  0
   -6.1251   -1.8924   -1.7917 C   0  0  0  0  0  0  0  0  0  0  0  0
   -6.1218   -1.8949    1.7904 C   0  0  0  0  0  0  0  0  0  0  0  0
   -5.6575    2.9501    1.7940 C   0  0  0  0  0  0  0  0  0  0  0  0
   -5.6645    2.9491   -1.7950 C   0  0  0  0  0  0  0  0  0  0  0  0
    1.8925   -6.0263   -1.7970 C   0  0  0  0  0  0  0  0  0  0  0  0
    1.8851   -6.0089    1.7994 C   0  0  0  0  0  0  0  0  0  0  0  0
    5.6547   -2.9482   -1.7966 C   0  0  0  0  0  0  0  0  0  0  0  0
    5.6684   -2.9516    1.7922 C   0  0  0  0  0  0  0  0  0  0  0  0
    5.2508    2.8834    1.2207 N   0  0  0  0  0  0  0  0  0  0  0  0
    5.5605    3.5975    0.0046 C   0  0  2  0  0  0  0  0  0  0  0  0
    4.5429    4.7721    0.0076 C   0  0  2  0  0  0  0  0  0  0  0  0
    3.7877    4.5588    1.2205 N   0  0  0  0  0  0  0  0  0  0  0  0
    4.2375    3.4748    1.9405 C   0  0  0  0  0  0  0  0  0  0  0  0
    5.2501    2.8890   -1.2154 N   0  0  0  0  0  0  0  0  0  0  0  0
    4.2464    3.4926   -1.9388 C   0  0  0  0  0  0  0  0  0  0  0  0
    3.8006    4.5762   -1.2156 N   0  0  0  0  0  0  0  0  0  0  0  0
    3.8323    3.1217    3.0366 O   0  0  0  0  0  0  0  0  0  0  0  0
    3.8457    3.1483   -3.0395 O   0  0  0  0  0  0  0  0  0  0  0  0
    6.1236    1.8906    1.7925 C   0  0  0  0  0  0  0  0  0  0  0  0
    6.1221    1.8964   -1.7898 C   0  0  0  0  0  0  0  0  0  0  0  0
   -2.9017    5.1756    1.2173 N   0  0  0  0  0  0  0  0  0  0  0  0
   -3.5988    5.5014   -0.0045 C   0  0  2  0  0  0  0  0  0  0  0  0
   -4.8055    4.5218   -0.0026 C   0  0  2  0  0  0  0  0  0  0  0  0
   -4.6181    3.7604    1.2110 N   0  0  0  0  0  0  0  0  0  0  0  0
   -3.5262    4.1819    1.9364 C   0  0  0  0  0  0  0  0  0  0  0  0
   -2.8937    5.1626   -1.2192 N   0  0  0  0  0  0  0  0  0  0  0  0
   -3.5291    4.1785   -1.9433 C   0  0  0  0  0  0  0  0  0  0  0  0
   -4.6310    3.7741   -1.2250 N   0  0  0  0  0  0  0  0  0  0  0  0
   -3.1911    3.7707    3.0360 O   0  0  0  0  0  0  0  0  0  0  0  0
   -3.1940    3.7631   -3.0414 O   0  0  0  0  0  0  0  0  0  0  0  0
   -1.8939    6.0261    1.7964 C   0  0  0  0  0  0  0  0  0  0  0  0
   -1.8836    6.0098   -1.7999 C   0  0  0  0  0  0  0  0  0  0  0  0
   -6.6089   -3.9161   -0.0025 H   0  0  0  0  0  0  0  0  0  0  0  0
   -5.0078   -5.7641   -0.0125 H   0  0  0  0  0  0  0  0  0  0  0  0
   -1.8991   -7.3524   -0.0108 H   0  0  0  0  0  0  0  0  0  0  0  0
    0.5332   -7.5736    0.0065 H   0  0  0  0  0  0  0  0  0  0  0  0
   -0.5332    7.5742   -0.0057 H   0  0  0  0  0  0  0  0  0  0  0  0
    1.8992    7.3529    0.0142 H   0  0  0  0  0  0  0  0  0  0  0  0
    7.6926    0.5250   -0.0030 H   0  0  0  0  0  0  0  0  0  0  0  0
    7.4560   -1.9093   -0.0019 H   0  0  0  0  0  0  0  0  0  0  0  0
    3.8841   -6.5594    0.0095 H   0  0  0  0  0  0  0  0  0  0  0  0
    5.7819   -5.0194   -0.0109 H   0  0  0  0  0  0  0  0  0  0  0  0
    3.4541    6.5641   -1.6823 H   0  0  0  0  0  0  0  0  0  0  0  0
    2.8408    5.3613   -2.8526 H   0  0  0  0  0  0  0  0  0  0  0  0
   -2.8388   -5.3574    2.8547 H   0  0  0  0  0  0  0  0  0  0  0  0
   -3.4530   -6.5617    1.6863 H   0  0  0  0  0  0  0  0  0  0  0  0
    2.8222    5.3289    2.8616 H   0  0  0  0  0  0  0  0  0  0  0  0
    3.4428    6.5427    1.7056 H   0  0  0  0  0  0  0  0  0  0  0  0
   -2.8243   -5.3321   -2.8596 H   0  0  0  0  0  0  0  0  0  0  0  0
   -3.4436   -6.5447   -1.7017 H   0  0  0  0  0  0  0  0  0  0  0  0
   -7.6930   -0.5246    0.0031 H   0  0  0  0  0  0  0  0  0  0  0  0
   -7.4557    1.9097   -0.0030 H   0  0  0  0  0  0  0  0  0  0  0  0
   -5.8900   -1.8161   -2.8536 H   0  0  0  0  0  0  0  0  0  0  0  0
   -7.1624   -2.2254   -1.6682 H   0  0  0  0  0  0  0  0  0  0  0  0
   -5.8854   -1.8203    2.8521 H   0  0  0  0  0  0  0  0  0  0  0  0
   -7.1599   -2.2263    1.6670 H   0  0  0  0  0  0  0  0  0  0  0  0
   -6.6150    3.4725    1.6802 H   0  0  0  0  0  0  0  0  0  0  0  0
   -5.4298    2.8313    2.8537 H   0  0  0  0  0  0  0  0  0  0  0  0
   -6.6268    3.4617   -1.6771 H   0  0  0  0  0  0  0  0  0  0  0  0
   -5.4432    2.8263   -2.8556 H   0  0  0  0  0  0  0  0  0  0  0  0
    1.8185   -5.7801   -2.8566 H   0  0  0  0  0  0  0  0  0  0  0  0
    2.2076   -7.0707   -1.6843 H   0  0  0  0  0  0  0  0  0  0  0  0
    1.8077   -5.7543    2.8567 H   0  0  0  0  0  0  0  0  0  0  0  0
    2.2011   -7.0544    1.6960 H   0  0  0  0  0  0  0  0  0  0  0  0
    5.4254   -2.8281   -2.8558 H   0  0  0  0  0  0  0  0  0  0  0  0
    6.6125   -3.4705   -1.6849 H   0  0  0  0  0  0  0  0  0  0  0  0
    5.4489   -2.8305    2.8534 H   0  0  0  0  0  0  0  0  0  0  0  0
    6.6304   -3.4640    1.6718 H   0  0  0  0  0  0  0  0  0  0  0  0
    6.6086    3.9157    0.0054 H   0  0  0  0  0  0  0  0  0  0  0  0
    5.0080    5.7641    0.0170 H   0  0  0  0  0  0  0  0  0  0  0  0
    5.8879    1.8135    2.8542 H   0  0  0  0  0  0  0  0  0  0  0  0
    7.1610    2.2238    1.6699 H   0  0  0  0  0  0  0  0  0  0  0  0
    5.8860    1.8225   -2.8517 H   0  0  0  0  0  0  0  0  0  0  0  0
    7.1602    2.2276   -1.6659 H   0  0  0  0  0  0  0  0  0  0  0  0
   -3.8842    6.5592   -0.0109 H   0  0  0  0  0  0  0  0  0  0  0  0
   -5.7816    5.0188    0.0055 H   0  0  0  0  0  0  0  0  0  0  0  0
   -2.2093    7.0704    1.6835 H   0  0  0  0  0  0  0  0  0  0  0  0
   -1.8208    5.7798    2.8561 H   0  0  0  0  0  0  0  0  0  0  0  0
   -2.1998    7.0552   -1.6964 H   0  0  0  0  0  0  0  0  0  0  0  0
   -1.8051    5.7556   -2.8572 H   0  0  0  0  0  0  0  0  0  0  0  0
    0.6790   -0.6160   -0.4290 O   0  0  0  0  0  0  0  0  0  0  0  0
    0.8040    0.9130   -3.0020 C   0  0  0  0  0  0  0  0  0  0  0  0
   -0.3060    1.4390   -2.4380 C   0  0  0  0  0  0  0  0  0  0  0  0
   -1.4640    0.6840   -2.0640 C   0  0  0  0  0  0  0  0  0  0  0  0
   -1.4640   -0.5840   -1.6310 C   0  0  0  0  0  0  0  0  0  0  0  0
   -0.2050   -1.3260   -1.2880 C   0  0  0  0  0  0  0  0  0  0  0  0
    0.4730   -1.5030   -2.6150 C   0  0  0  0  0  0  0  0  0  0  0  0
    0.9850   -0.4750   -3.3040 C   0  0  0  0  0  0  0  0  0  0  0  0
    1.5650    1.5870   -3.3730 H   0  0  0  0  0  0  0  0  0  0  0  0
   -0.3960    2.5160   -2.3790 H   0  0  0  0  0  0  0  0  0  0  0  0
   -2.4140    1.1950   -2.1650 H   0  0  0  0  0  0  0  0  0  0  0  0
   -2.3960   -1.1110   -1.4830 H   0  0  0  0  0  0  0  0  0  0  0  0
   -0.4430   -2.3030   -0.8490 H   0  0  0  0  0  0  0  0  0  0  0  0
    0.5770   -2.5140   -2.9820 H   0  0  0  0  0  0  0  0  0  0  0  0
    1.5770   -0.6900   -4.1850 H   0  0  0  0  0  0  0  0  0  0  0  0
    0.7410   -0.9980    0.9540 C   0  0  0  0  0  0  0  0  0  0  0  0
   -0.5920   -1.4290    1.5030 C   0  0  0  0  0  0  0  0  0  0  0  0
   -1.5650   -0.6650    2.0130 C   0  0  0  0  0  0  0  0  0  0  0  0
   -1.5440    0.7420    2.3050 C   0  0  0  0  0  0  0  0  0  0  0  0
   -0.4500    1.5010    2.5090 C   0  0  0  0  0  0  0  0  0  0  0  0
    0.9180    1.0640    2.4600 C   0  0  0  0  0  0  0  0  0  0  0  0
    1.4360   -0.0060    1.8450 C   0  0  0  0  0  0  0  0  0  0  0  0
    1.3810   -1.8890    0.8860 H   0  0  0  0  0  0  0  0  0  0  0  0
   -0.7840   -2.4900    1.4060 H   0  0  0  0  0  0  0  0  0  0  0  0
   -2.4980   -1.1570    2.2630 H   0  0  0  0  0  0  0  0  0  0  0  0
   -2.5140    1.1970    2.4510 H   0  0  0  0  0  0  0  0  0  0  0  0
   -0.5940    2.5290    2.8120 H   0  0  0  0  0  0  0  0  0  0  0  0
    1.6090    1.7010    2.9980 H   0  0  0  0  0  0  0  0  0  0  0  0
    2.4970   -0.1840    1.9550 H   0  0  0  0  0  0  0  0  0  0  0  0
  1  2  1  0
  2 97  1  1
  2  6  1  0
  3 98  1  6
  3  2  1  0
  3  8  1  0
  4  3  1  0
  5  1  1  0
  5  4  1  0
  6 66  1  0
  6  7  1  0
  7 10  2  0
  8 52  1  0
  8  7  1  0
  9  5  2  0
 11 12  1  0
 12 99  1  6
 12 13  1  0
 12 16  1  0
 13100  1  1
 13 18  1  0
 14 13  1  0
 15 14  1  0
 15 11  1  0
 16 52  1  0
 16 17  1  0
 17 20  2  0
 18 70  1  0
 18 17  1  0
 19 15  2  0
 21 22  1  0
 22101  1  6
 22 23  1  0
 22 26  1  0
 23102  1  1
 23 28  1  0
 24 23  1  0
 25 21  1  0
 25 24  1  0
 26 95  1  0
 26 27  1  0
 27 30  2  0
 28 53  1  0
 28 27  1  0
 29 25  2  0
 31 32  1  0
 32103  1  1
 32 36  1  0
 33 32  1  0
 33104  1  6
 33 38  1  0
 34 33  1  0
 35 34  1  0
 35 31  1  0
 36 83  1  0
 36 37  1  0
 37 40  2  0
 38 72  1  0
 38 37  1  0
 39 35  2  0
 41 42  1  0
 42105  1  1
 42 46  1  0
 43106  1  6
 43 42  1  0
 43 48  1  0
 44 43  1  0
 45 41  1  0
 45 44  1  0
 46 70  1  0
 46 47  1  0
 47 50  2  0
 48 72  1  0
 48 47  1  0
 49 45  2  0
 51107  1  0
 51 80  1  0
 51 24  1  0
 52109  1  0
 53111  1  0
 54114  1  0
 54 11  1  0
 54  4  1  0
 55 56  1  0
 56 57  1  0
 56115  1  1
 56 60  1  0
 57116  1  6
 57 62  1  0
 58 57  1  0
 59 55  1  0
 59 58  1  0
 60 66  1  0
 60 61  1  0
 61 64  2  0
 62 67  1  0
 62 61  1  0
 63 59  2  0
 65118  1  0
 65  1  1  0
 65 55  1  0
 66119  1  0
 67122  1  0
 68123  1  0
 68 92  1  0
 68 58  1  0
 69126  1  0
 69 14  1  0
 69 41  1  0
 70127  1  0
 71130  1  0
 71 34  1  0
 71 44  1  0
 72131  1  0
 73 83  1  0
 73 77  1  0
 74133  1  6
 74 75  1  0
 74 73  1  0
 75134  1  1
 75 76  1  0
 76 53  1  0
 76 77  1  0
 77 81  2  0
 78 74  1  0
 79 80  1  0
 79 78  1  0
 80 75  1  0
 82 79  2  0
 83135  1  0
 84138  1  0
 84 31  1  0
 84 78  1  0
 85 95  1  0
 85 89  1  0
 86139  1  6
 86 87  1  0
 86 85  1  0
 87140  1  1
 87 88  1  0
 88 67  1  0
 88 89  1  0
 89 93  2  0
 90 86  1  0
 91 92  1  0
 91 90  1  0
 92 87  1  0
 94 91  2  0
 95142  1  0
 96143  1  0
 96 90  1  0
 96 21  1  0
108 51  1  0
110 52  1  0
112 53  1  0
113 54  1  0
117 65  1  0
120 66  1  0
121 67  1  0
124 68  1  0
125 69  1  0
128 70  1  0
129 71  1  0
132 72  1  0
136 83  1  0
137 84  1  0
141 95  1  0
144 96  1  0
145160  1  0
146147  2  0
147154  1  0
147148  1  0
148149  2  0
149156  1  0
149150  1  0
150157  1  0
150145  1  0
151150  1  0
152146  1  0
152151  2  0
153146  1  0
155148  1  0
158151  1  0
159152  1  0
160167  1  0
160161  1  0
160166  1  0
161162  2  0
162169  1  0
162163  1  0
163170  1  0
163164  2  0
164171  1  0
165164  1  0
165172  1  0
166173  1  0
166165  2  0
168161  1  0
M  END
$$$$
optlog.xyz
     RDKit          3D

173198  0  0  1  0  0  0  0  0999 V2000
   -5.2520   -2.8849   -1.2197 N   0  0  0  0  0  0  0  0  0  0  0  0
   -5.5609   -3.5977   -0.0027 C   0  0  1  0  0  0  0  0  0  0  0  0
   -4.5429   -4.7721   -0.0049 C   0  0  1  0  0  0  0  0  0  0  0  0
   -3.7892   -4.5604   -1.2189 N   0  0  0  0  0  0  0  0  0  0  0  0
   -4.2397   -3.4773   -1.9399 C   0  0  0  0  0  0  0  0  0  0  0  0
   -5.2500   -2.8879    1.2165 N   0  0  0  0  0  0  0  0  0  0  0  0
   -4.2453   -3.4901    1.9396 C   0  0  0  0  0  0  0  0  0  0  0  0
   -3.7995   -4.5743    1.2172 N   0  0  0  0  0  0  0  0  0  0  0  0
   -3.8357   -3.1257   -3.0370 O   0  0  0  0  0  0  0  0  0  0  0  0
   -3.8438   -3.1443    3.0396 O   0  0  0  0  0  0  0  0  0  0  0  0
   -1.6327   -5.6618   -1.2192 N   0  0  0  0  0  0  0  0  0  0  0  0
   -1.3661   -6.3954   -0.0038 C   0  0  1  0  0  0  0  0  0  0  0  0
    0.1814   -6.5361    0.0006 C   0  0  1  0  0  0  0  0  0  0  0  0
    0.5814   -5.8762   -1.2195 N   0  0  0  0  0  0  0  0  0  0  0  0
   -0.4902   -5.4034   -1.9430 C   0  0  0  0  0  0  0  0  0  0  0  0
   -1.6411   -5.6751    1.2168 N   0  0  0  0  0  0  0  0  0  0  0  0
   -0.5017   -5.4039    1.9408 C   0  0  0  0  0  0  0  0  0  0  0  0
    0.5758   -5.8631    1.2164 N   0  0  0  0  0  0  0  0  0  0  0  0
   -0.4398   -4.8784   -3.0440 O   0  0  0  0  0  0  0  0  0  0  0  0
   -0.4572   -4.8790    3.0422 O   0  0  0  0  0  0  0  0  0  0  0  0
   -0.5748    5.8636   -1.2157 N   0  0  0  0  0  0  0  0  0  0  0  0
   -0.1813    6.5367    0.0003 C   0  0  2  0  0  0  0  0  0  0  0  0
    1.3662    6.3959    0.0060 C   0  0  2  0  0  0  0  0  0  0  0  0
    1.6421    5.6766   -1.2150 N   0  0  0  0  0  0  0  0  0  0  0  0
    0.5032    5.4046   -1.9393 C   0  0  0  0  0  0  0  0  0  0  0  0
   -0.5823    5.8768    1.2202 N   0  0  0  0  0  0  0  0  0  0  0  0
    0.4887    5.4031    1.9440 C   0  0  0  0  0  0  0  0  0  0  0  0
    1.6318    5.6612    1.2209 N   0  0  0  0  0  0  0  0  0  0  0  0
    0.4595    4.8794   -3.0405 O   0  0  0  0  0  0  0  0  0  0  0  0
    0.4374    4.8775    3.0448 O   0  0  0  0  0  0  0  0  0  0  0  0
    5.9872    0.5809   -1.2187 N   0  0  0  0  0  0  0  0  0  0  0  0
    6.6534    0.1784   -0.0020 C   0  0  2  0  0  0  0  0  0  0  0  0
    6.5031   -1.3690   -0.0038 C   0  0  2  0  0  0  0  0  0  0  0  0
    5.7771   -1.6328   -1.2239 N   0  0  0  0  0  0  0  0  0  0  0  0
    5.5094   -0.4890   -1.9410 C   0  0  0  0  0  0  0  0  0  0  0  0
    5.9914    0.5765    1.2181 N   0  0  0  0  0  0  0  0  0  0  0  0
    5.5131   -0.4950    1.9374 C   0  0  0  0  0  0  0  0  0  0  0  0
    5.7707   -1.6368    1.2122 N   0  0  0  0  0  0  0  0  0  0  0  0
    4.9749   -0.4358   -3.0375 O   0  0  0  0  0  0  0  0  0  0  0  0
    4.9849   -0.4453    3.0370 O   0  0  0  0  0  0  0  0  0  0  0  0
    2.9014   -5.1763   -1.2190 N   0  0  0  0  0  0  0  0  0  0  0  0
    3.5990   -5.5016    0.0026 C   0  0  1  0  0  0  0  0  0  0  0  0
    4.8059   -4.5222   -0.0005 C   0  0  1  0  0  0  0  0  0  0  0  0
    4.6164   -3.7594   -1.2129 N   0  0  0  0  0  0  0  0  0  0  0  0
    3.5245   -4.1818   -1.9381 C   0  0  0  0  0  0  0  0  0  0  0  0
    2.8945   -5.1617    1.2175 N   0  0  0  0  0  0  0  0  0  0  0  0
    3.5315   -4.1786    1.9414 C   0  0  0  0  0  0  0  0  0  0  0  0
    4.6338   -3.7759    1.2230 N   0  0  0  0  0  0  0  0  0  0  0  0
    3.1884   -3.7705   -3.0374 O   0  0  0  0  0  0  0  0  0  0  0  0
    3.1971   -3.7628    3.0395 O   0  0  0  0  0  0  0  0  0  0  0  0
    2.9587    5.5920   -1.7934 C   0  0  0  0  0  0  0  0  0  0  0  0
   -2.9574   -5.5895    1.7959 C   0  0  0  0  0  0  0  0  0  0  0  0
    2.9453    5.5701    1.8054 C   0  0  0  0  0  0  0  0  0  0  0  0
   -2.9467   -5.5721   -1.8031 C   0  0  0  0  0  0  0  0  0  0  0  0
   -5.9923   -0.5779   -1.2184 N   0  0  0  0  0  0  0  0  0  0  0  0
   -6.6538   -0.1784    0.0014 C   0  0  2  0  0  0  0  0  0  0  0  0
   -6.5030    1.3690    0.0015 C   0  0  2  0  0  0  0  0  0  0  0  0
   -5.7678    1.6349   -1.2134 N   0  0  0  0  0  0  0  0  0  0  0  0
   -5.5109    0.4923   -1.9373 C   0  0  0  0  0  0  0  0  0  0  0  0
   -5.9872   -0.5797    1.2184 N   0  0  0  0  0  0  0  0  0  0  0  0
   -5.5113    0.4910    1.9408 C   0  0  0  0  0  0  0  0  0  0  0  0
   -5.7794    1.6341    1.2227 N   0  0  0  0  0  0  0  0  0  0  0  0
   -4.9808    0.4411   -3.0359 O   0  0  0  0  0  0  0  0  0  0  0  0
   -4.9780    0.4389    3.0378 O   0  0  0  0  0  0  0  0  0  0  0  0
   -6.1251   -1.8924   -1.7917 C   0  0  0  0  0  0  0  0  0  0  0  0
   -6.1218   -1.8949    1.7904 C   0  0  0  0  0  0  0  0  0  0  0  0
   -5.6575    2.9501    1.7940 C   0  0  0  0  0  0  0  0  0  0  0  0
   -5.6645    2.9491   -1.7950 C   0  0  0  0  0  0  0  0  0  0  0  0
    1.8925   -6.0263   -1.7970 C   0  0  0  0  0  0  0  0  0  0  0  0
    1.8851   -6.0089    1.7994 C   0  0  0  0  0  0  0  0  0  0  0  0
    5.6547   -2.9482   -1.7966 C   0  0  0  0  0  0  0  0  0  0  0  0
    5.6684   -2.9516    1.7922 C   0  0  0  0  0  0  0  0  0  0  0  0
    5.2508    2.8834    1.2207 N   0  0  0  0  0  0  0  0  0  0  0  0
    5.5605    3.5975    0.0046 C   0  0  2  0  0  0  0  0  0  0  0  0
    4.5429    4.7721    0.0076 C   0  0  2  0  0  0  0  0  0  0  0  0
    3.7877    4.5588    1.2205 N   0  0  0  0  0  0  0  0  0  0  0  0
    4.2375    3.4748    1.9405 C   0  0  0  0  0  0  0  0  0  0  0  0
    5.2501    2.8890   -1.2154 N   0  0  0  0  0  0  0  0  0  0  0  0
    4.2464    3.4926   -1.9388 C   0  0  0  0  0  0  0  0  0  0  0  0
    3.8006    4.5762   -1.2156 N   0  0  0  0  0  0  0  0  0  0  0  0
    3.8323    3.1217    3.0366 O   0  0  0  0  0  0  0  0  0  0  0  0
    3.8457    3.1483   -3.0395 O   0  0  0  0  0  0  0  0  0  0  0  0
    6.1236    1.8906    1.7925 C   0  0  0  0  0  0  0  0  0  0  0  0
    6.1221    1.8964   -1.7898 C   0  0  0  0  0  0  0  0  0  0  0  0
   -2.9017    5.1756    1.2173 N   0  0  0  0  0  0  0  0  0  0  0  0
   -3.5988    5.5014   -0.0045 C   0  0  2  0  0  0  0  0  0  0  0  0
   -4.8055    4.5218   -0.0026 C   0  0  2  0  0  0  0  0  0  0  0  0
   -4.6181    3.7604    1.2110 N   0  0  0  0  0  0  0  0  0  0  0  0
   -3.5262    4.1819    1.9364 C   0  0  0  0  0  0  0  0  0  0  0  0
   -2.8937    5.1626   -1.2192 N   0  0  0  0  0  0  0  0  0  0  0  0
   -3.5291    4.1785   -1.9433 C   0  0  0  0  0  0  0  0  0  0  0  0
   -4.6310    3.7741   -1.2250 N   0  0  0  0  0  0  0  0  0  0  0  0
   -3.1911    3.7707    3.0360 O   0  0  0  0  0  0  0  0  0  0  0  0
   -3.1940    3.7631   -3.0414 O   0  0  0  0  0  0  0  0  0  0  0  0
   -1.8939    6.0261    1.7964 C   0  0  0  0  0  0  0  0  0  0  0  0
   -1.8836    6.0098   -1.7999 C   0  0  0  0  0  0  0  0  0  0  0  0
   -6.6089   -3.9161   -0.0025 H   0  0  0  0  0  0  0  0  0  0  0  0
   -5.0078   -5.7641   -0.0125 H   0  0  0  0  0  0  0  0  0  0  0  0
   -1.8991   -7.3524   -0.0108 H   0  0  0  0  0  0  0  0  0  0  0  0
    0.5332   -7.5736    0.0065 H   0  0  0  0  0  0  0  0  0  0  0  0
   -0.5332    7.5742   -0.0057 H   0  0  0  0  0  0  0  0  0  0  0  0
    1.8992    7.3529    0.0142 H   0  0  0  0  0  0  0  0  0  0  0  0
    7.6926    0.5250   -0.0030 H   0  0  0  0  0  0  0  0  0  0  0  0
    7.4560   -1.9093   -0.0019 H   0  0  0  0  0  0  0  0  0  0  0  0
    3.8841   -6.5594    0.0095 H   0  0  0  0  0  0  0  0  0  0  0  0
    5.7819   -5.0194   -0.0109 H   0  0  0  0  0  0  0  0  0  0  0  0
    3.4541    6.5641   -1.6823 H   0  0  0  0  0  0  0  0  0  0  0  0
    2.8408    5.3613   -2.8526 H   0  0  0  0  0  0  0  0  0  0  0  0
   -2.8388   -5.3574    2.8547 H   0  0  0  0  0  0  0  0  0  0  0  0
   -3.4530   -6.5617    1.6863 H   0  0  0  0  0  0  0  0  0  0  0  0
    2.8222    5.3289    2.8616 H   0  0  0  0  0  0  0  0  0  0  0  0
    3.4428    6.5427    1.7056 H   0  0  0  0  0  0  0  0  0  0  0  0
   -2.8243   -5.3321   -2.8596 H   0  0  0  0  0  0  0  0  0  0  0  0
   -3.4436   -6.5447   -1.7017 H   0  0  0  0  0  0  0  0  0  0  0  0
   -7.6930   -0.5246    0.0031 H   0  0  0  0  0  0  0  0  0  0  0  0
   -7.4557    1.9097   -0.0030 H   0  0  0  0  0  0  0  0  0  0  0  0
   -5.8900   -1.8161   -2.8536 H   0  0  0  0  0  0  0  0  0  0  0  0
   -7.1624   -2.2254   -1.6682 H   0  0  0  0  0  0  0  0  0  0  0  0
   -5.8854   -1.8203    2.8521 H   0  0  0  0  0  0  0  0  0  0  0  0
   -7.1599   -2.2263    1.6670 H   0  0  0  0  0  0  0  0  0  0  0  0
   -6.6150    3.4725    1.6802 H   0  0  0  0  0  0  0  0  0  0  0  0
   -5.4298    2.8313    2.8537 H   0  0  0  0  0  0  0  0  0  0  0  0
   -6.6268    3.4617   -1.6771 H   0  0  0  0  0  0  0  0  0  0  0  0
   -5.4432    2.8263   -2.8556 H   0  0  0  0  0  0  0  0  0  0  0  0
    1.8185   -5.7801   -2.8566 H   0  0  0  0  0  0  0  0  0  0  0  0
    2.2076   -7.0707   -1.6843 H   0  0  0  0  0  0  0  0  0  0  0  0
    1.8077   -5.7543    2.8567 H   0  0  0  0  0  0  0  0  0  0  0  0
    2.2011   -7.0544    1.6960 H   0  0  0  0  0  0  0  0  0  0  0  0
    5.4254   -2.8281   -2.8558 H   0  0  0  0  0  0  0  0  0  0  0  0
    6.6125   -3.4705   -1.6849 H   0  0  0  0  0  0  0  0  0  0  0  0
    5.4489   -2.8305    2.8534 H   0  0  0  0  0  0  0  0  0  0  0  0
    6.6304   -3.4640    1.6718 H   0  0  0  0  0  0  0  0  0  0  0  0
    6.6086    3.9157    0.0054 H   0  0  0  0  0  0  0  0  0  0  0  0
    5.0080    5.7641    0.0170 H   0  0  0  0  0  0  0  0  0  0  0  0
    5.8879    1.8135    2.8542 H   0  0  0  0  0  0  0  0  0  0  0  0
    7.1610    2.2238    1.6699 H   0  0  0  0  0  0  0  0  0  0  0  0
    5.8860    1.8225   -2.8517 H   0  0  0  0  0  0  0  0  0  0  0  0
    7.1602    2.2276   -1.6659 H   0  0  0  0  0  0  0  0  0  0  0  0
   -3.8842    6.5592   -0.0109 H   0  0  0  0  0  0  0  0  0  0  0  0
   -5.7816    5.0188    0.0055 H   0  0  0  0  0  0  0  0  0  0  0  0
   -2.2093    7.0704    1.6835 H   0  0  0  0  0  0  0  0  0  0  0  0
   -1.8208    5.7798    2.8561 H   0  0  0  0  0  0  0  0  0  0  0  0
   -2.1998    7.0552   -1.6964 H   0  0  0  0  0  0  0  0  0  0  0  0
   -1.8051    5.7556   -2.8572 H   0  0  0  0  0  0  0  0  0  0  0  0
   -0.8820   -0.1960    0.2370 O   0  0  0  0  0  0  0  0  0  0  0  0
    0.5720    0.8920    2.6200 C   0  0  0  0  0  0  0  0  0  0  0  0
    1.6000    0.4340    1.8730 C   0  0  0  0  0  0  0  0  0  0  0  0
    1.7550   -0.9240    1.4490 C   0  0  0  0  0  0  0  0  0  0  0  0
    0.7580   -1.7730    1.1640 C   0  0  0  0  0  0  0  0  0  0  0  0
   -0.6740   -1.3390    1.0590 C   0  0  0  0  0  0  0  0  0  0  0  0
   -1.0370   -0.9750    2.4680 C   0  0  0  0  0  0  0  0  0  0  0  0
   -0.5130    0.0880    3.0950 C   0  0  0  0  0  0  0  0  0  0  0  0
    0.6200    1.9050    3.0010 H   0  0  0  0  0  0  0  0  0  0  0  0
    2.4370    1.0950    1.6830 H   0  0  0  0  0  0  0  0  0  0  0  0
    2.7750   -1.2830    1.3790 H   0  0  0  0  0  0  0  0  0  0  0  0
    0.9680   -2.8150    0.9660 H   0  0  0  0  0  0  0  0  0  0  0  0
   -1.3010   -2.1670    0.7060 H   0  0  0  0  0  0  0  0  0  0  0  0
   -1.7840   -1.5840    2.9560 H   0  0  0  0  0  0  0  0  0  0  0  0
   -0.9200    0.3690    4.0580 H   0  0  0  0  0  0  0  0  0  0  0  0
   -1.3320   -0.3970   -1.1110 C   0  0  0  0  0  0  0  0  0  0  0  0
   -0.6170   -1.5230   -1.8070 C   0  0  0  0  0  0  0  0  0  0  0  0
    0.5480   -1.4850   -2.4630 C   0  0  0  0  0  0  0  0  0  0  0  0
    1.3520   -0.3430   -2.8040 C   0  0  0  0  0  0  0  0  0  0  0  0
    0.9310    0.9330   -2.8970 C   0  0  0  0  0  0  0  0  0  0  0  0
   -0.4020    1.4160   -2.6600 C   0  0  0  0  0  0  0  0  0  0  0  0
   -1.3830    0.8530   -1.9450 C   0  0  0  0  0  0  0  0  0  0  0  0
   -2.3670   -0.7180   -0.9300 H   0  0  0  0  0  0  0  0  0  0  0  0
   -1.1000   -2.4860   -1.6940 H   0  0  0  0  0  0  0  0  0  0  0  0
    0.9500   -2.4310   -2.8090 H   0  0  0  0  0  0  0  0  0  0  0  0
    2.3720   -0.5650   -3.0870 H   0  0  0  0  0  0  0  0  0  0  0  0
    1.6320    1.6750   -3.2550 H   0  0  0  0  0  0  0  0  0  0  0  0
   -0.6220    2.3650   -3.1320 H   0  0  0  0  0  0  0  0  0  0  0  0
   -2.3370    1.3620   -1.9150 H   0  0  0  0  0  0  0  0  0  0  0  0
  1  2  1  0
  2 97  1  1
  2  6  1  0
  3 98  1  6
  3  2  1  0
  3  8  1  0
  4  3  1  0
  5  1  1  0
  5  4  1  0
  6 66  1  0
  6  7  1  0
  7 10  2  0
  8 52  1  0
  8  7  1  0
  9  5  2  0
 11 12  1  0
 12 99  1  6
 12 13  1  0
 12 16  1  0
 13100  1  1
 13 18  1  0
 14 13  1  0
 15 14  1  0
 15 11  1  0
 16 52  1  0
 16 17  1  0
 17 20  2  0
 18 70  1  0
 18 17  1  0
 19 15  2  0
 21 22  1  0
 22101  1  6
 22 23  1  0
 22 26  1  0
 23102  1  1
 23 28  1  0
 24 23  1  0
 25 21  1  0
 25 24  1  0
 26 95  1  0
 26 27  1  0
 27 30  2  0
 28 53  1  0
 28 27  1  0
 29 25  2  0
 31 32  1  0
 32103  1  1
 32 36  1  0
 33 32  1  0
 33104  1  6
 33 38  1  0
 34 33  1  0
 35 34  1  0
 35 31  1  0
 36 83  1  0
 36 37  1  0
 37 40  2  0
 38 72  1  0
 38 37  1  0
 39 35  2  0
 41 42  1  0
 42105  1  1
 42 46  1  0
 43106  1  6
 43 42  1  0
 43 48  1  0
 44 43  1  0
 45 41  1  0
 45 44  1  0
 46 70  1  0
 46 47  1  0
 47 50  2  0
 48 72  1  0
 48 47  1  0
 49 45  2  0
 51107  1  0
 51 80  1  0
 51 24  1  0
 52109  1  0
 53111  1  0
 54114  1  0
 54 11  1  0
 54  4  1  0
 55 56  1  0
 56 57  1  0
 56115  1  1
 56 60  1  0
 57116  1  6
 57 62  1  0
 58 57  1  0
 59 55  1  0
 59 58  1  0
 60 66  1  0
 60 61  1  0
 61 64  2  0
 62 67  1  0
 62 61  1  0
 63 59  2  0
 65118  1  0
 65  1  1  0
 65 55  1  0
 66119  1  0
 67122  1  0
 68123  1  0
 68 92  1  0
 68 58  1  0
 69126  1  0
 69 14  1  0
 69 41  1  0
 70127  1  0
 71130  1  0
 71 34  1  0
 71 44  1  0
 72131  1  0
 73 83  1  0
 73 77  1  0
 74133  1  6
 74 75  1  0
 74 73  1  0
 75134  1  1
 75 76  1  0
 76 53  1  0
 76 77  1  0
 77 81  2  0
 78 74  1  0
 79 80  1  0
 79 78  1  0
 80 75  1  0
 82 79  2  0
 83135  1  0
 84138  1  0
 84 31  1  0
 84 78  1  0
 85 95  1  0
 85 89  1  0
 86139  1  6
 86 87  1  0
 86 85  1  0
 87140  1  1
 87 88  1  0
 88 67  1  0
 88 89  1  0
 89 93  2  0
 90 86  1  0
 91 92  1  0
 91 90  1  0
 92 87  1  0
 94 91  2  0
 95142  1  0
 96143  1  0
 96 90  1  0
 96 21  1  0
108 51  1  0
110 52  1  0
112 53  1  0
113 54  1  0
117 65  1  0
120 66  1  0
121 67  1  0
124 68  1  0
125 69  1  0
128 70  1  0
129 71  1  0
132 72  1  0
136 83  1  0
137 84  1  0
141 95  1  0
144 96  1  0
145150  1  0
146153  1  0
146152  1  0
147146  2  0
148147  1  0
149148  2  0
150157  1  0
150149  1  0
150151  1  0
151158  1  0
151152  2  0
152159  1  0
154147  1  0
155148  1  0
156149  1  0
160167  1  0
160145  1  0
161168  1  0
161160  1  0
162161  2  0
163162  1  0
164163  2  0
164165  1  0
165166  2  0
166173  1  0
166160  1  0
169162  1  0
170163  1  0
171164  1  0
172165  1  0
M  END
$$$$
optlog.xyz
     RDKit          3D

173198  0  0  1  0  0  0  0  0999 V2000
   -5.2520   -2.8849   -1.2197 N   0  0  0  0  0  0  0  0  0  0  0  0
   -5.5609   -3.5977   -0.0027 C   0  0  1  0  0  0  0  0  0  0  0  0
   -4.5429   -4.7721   -0.0049 C   0  0  1  0  0  0  0  0  0  0  0  0
   -3.7892   -4.5604   -1.2189 N   0  0  0  0  0  0  0  0  0  0  0  0
   -4.2397   -3.4773   -1.9399 C   0  0  0  0  0  0  0  0  0  0  0  0
   -5.2500   -2.8879    1.2165 N   0  0  0  0  0  0  0  0  0  0  0  0
   -4.2453   -3.4901    1.9396 C   0  0  0  0  0  0  0  0  0  0  0  0
   -3.7995   -4.5743    1.2172 N   0  0  0  0  0  0  0  0  0  0  0  0
   -3.8357   -3.1257   -3.0370 O   0  0  0  0  0  0  0  0  0  0  0  0
   -3.8438   -3.1443    3.0396 O   0  0  0  0  0  0  0  0  0  0  0  0
   -1.6327   -5.6618   -1.2192 N   0  0  0  0  0  0  0  0  0  0  0  0
   -1.3661   -6.3954   -0.0038 C   0  0  1  0  0  0  0  0  0  0  0  0
    0.1814   -6.5361    0.0006 C   0  0  1  0  0  0  0  0  0  0  0  0
    0.5814   -5.8762   -1.2195 N   0  0  0  0  0  0  0  0  0  0  0  0
   -0.4902   -5.4034   -1.9430 C   0  0  0  0  0  0  0  0  0  0  0  0
   -1.6411   -5.6751    1.2168 N   0  0  0  0  0  0  0  0  0  0  0  0
   -0.5017   -5.4039    1.9408 C   0  0  0  0  0  0  0  0  0  0  0  0
    0.5758   -5.8631    1.2164 N   0  0  0  0  0  0  0  0  0  0  0  0
   -0.4398   -4.8784   -3.0440 O   0  0  0  0  0  0  0  0  0  0  0  0
   -0.4572   -4.8790    3.0422 O   0  0  0  0  0  0  0  0  0  0  0  0
   -0.5748    5.8636   -1.2157 N   0  0  0  0  0  0  0  0  0  0  0  0
   -0.1813    6.5367    0.0003 C   0  0  2  0  0  0  0  0  0  0  0  0
    1.3662    6.3959    0.0060 C   0  0  2  0  0  0  0  0  0  0  0  0
    1.6421    5.6766   -1.2150 N   0  0  0  0  0  0  0  0  0  0  0  0
    0.5032    5.4046   -1.9393 C   0  0  0  0  0  0  0  0  0  0  0  0
   -0.5823    5.8768    1.2202 N   0  0  0  0  0  0  0  0  0  0  0  0
    0.4887    5.4031    1.9440 C   0  0  0  0  0  0  0  0  0  0  0  0
    1.6318    5.6612    1.2209 N   0  0  0  0  0  0  0  0  0  0  0  0
    0.4595    4.8794   -3.0405 O   0  0  0  0  0  0  0  0  0  0  0  0
    0.4374    4.8775    3.0448 O   0  0  0  0  0  0  0  0  0  0  0  0
    5.9872    0.5809   -1.2187 N   0  0  0  0  0  0  0  0  0  0  0  0
    6.6534    0.1784   -0.0020 C   0  0  2  0  0  0  0  0  0  0  0  0
    6.5031   -1.3690   -0.0038 C   0  0  2  0  0  0  0  0  0  0  0  0
    5.7771   -1.6328   -1.2239 N   0  0  0  0  0  0  0  0  0  0  0  0
    5.5094   -0.4890   -1.9410 C   0  0  0  0  0  0  0  0  0  0  0  0
    5.9914    0.5765    1.2181 N   0  0  0  0  0  0  0  0  0  0  0  0
    5.5131   -0.4950    1.9374 C   0  0  0  0  0  0  0  0  0  0  0  0
    5.7707   -1.6368    1.2122 N   0  0  0  0  0  0  0  0  0  0  0  0
    4.9749   -0.4358   -3.0375 O   0  0  0  0  0  0  0  0  0  0  0  0
    4.9849   -0.4453    3.0370 O   0  0  0  0  0  0  0  0  0  0  0  0
    2.9014   -5.1763   -1.2190 N   0  0  0  0  0  0  0  0  0  0  0  0
    3.5990   -5.5016    0.0026 C   0  0  1  0  0  0  0  0  0  0  0  0
    4.8059   -4.5222   -0.0005 C   0  0  1  0  0  0  0  0  0  0  0  0
    4.6164   -3.7594   -1.2129 N   0  0  0  0  0  0  0  0  0  0  0  0
    3.5245   -4.1818   -1.9381 C   0  0  0  0  0  0  0  0  0  0  0  0
    2.8945   -5.1617    1.2175 N   0  0  0  0  0  0  0  0  0  0  0  0
    3.5315   -4.1786    1.9414 C   0  0  0  0  0  0  0  0  0  0  0  0
    4.6338   -3.7759    1.2230 N   0  0  0  0  0  0  0  0  0  0  0  0
    3.1884   -3.7705   -3.0374 O   0  0  0  0  0  0  0  0  0  0  0  0
    3.1971   -3.7628    3.0395 O   0  0  0  0  0  0  0  0  0  0  0  0
    2.9587    5.5920   -1.7934 C   0  0  0  0  0  0  0  0  0  0  0  0
   -2.9574   -5.5895    1.7959 C   0  0  0  0  0  0  0  0  0  0  0  0
    2.9453    5.5701    1.8054 C   0  0  0  0  0  0  0  0  0  0  0  0
   -2.9467   -5.5721   -1.8031 C   0  0  0  0  0  0  0  0  0  0  0  0
   -5.9923   -0.5779   -1.2184 N   0  0  0  0  0  0  0  0  0  0  0  0
   -6.6538   -0.1784    0.0014 C   0  0  2  0  0  0  0  0  0  0  0  0
   -6.5030    1.3690    0.0015 C   0  0  2  0  0  0  0  0  0  0  0  0
   -5.7678    1.6349   -1.2134 N   0  0  0  0  0  0  0  0  0  0  0  0
   -5.5109    0.4923   -1.9373 C   0  0  0  0  0  0  0  0  0  0  0  0
   -5.9872   -0.5797    1.2184 N   0  0  0  0  0  0  0  0  0  0  0  0
   -5.5113    0.4910    1.9408 C   0  0  0  0  0  0  0  0  0  0  0  0
   -5.7794    1.6341    1.2227 N   0  0  0  0  0  0  0  0  0  0  0  0
   -4.9808    0.4411   -3.0359 O   0  0  0  0  0  0  0  0  0  0  0  0
   -4.9780    0.4389    3.0378 O   0  0  0  0  0  0  0  0  0  0  0  0
   -6.1251   -1.8924   -1.7917 C   0  0  0  0  0  0  0  0  0  0  0  0
   -6.1218   -1.8949    1.7904 C   0  0  0  0  0  0  0  0  0  0  0  0
   -5.6575    2.9501    1.7940 C   0  0  0  0  0  0  0  0  0  0  0  0
   -5.6645    2.9491   -1.7950 C   0  0  0  0  0  0  0  0  0  0  0  0
    1.8925   -6.0263   -1.7970 C   0  0  0  0  0  0  0  0  0  0  0  0
    1.8851   -6.0089    1.7994 C   0  0  0  0  0  0  0  0  0  0  0  0
    5.6547   -2.9482   -1.7966 C   0  0  0  0  0  0  0  0  0  0  0  0
    5.6684   -2.9516    1.7922 C   0  0  0  0  0  0  0  0  0  0  0  0
    5.2508    2.8834    1.2207 N   0  0  0  0  0  0  0  0  0  0  0  0
    5.5605    3.5975    0.0046 C   0  0  2  0  0  0  0  0  0  0  0  0
    4.5429    4.7721    0.0076 C   0  0  2  0  0  0  0  0  0  0  0  0
    3.7877    4.5588    1.2205 N   0  0  0  0  0  0  0  0  0  0  0  0
    4.2375    3.4748    1.9405 C   0  0  0  0  0  0  0  0  0  0  0  0
    5.2501    2.8890   -1.2154 N   0  0  0  0  0  0  0  0  0  0  0  0
    4.2464    3.4926   -1.9388 C   0  0  0  0  0  0  0  0  0  0  0  0
    3.8006    4.5762   -1.2156 N   0  0  0  0  0  0  0  0  0  0  0  0
    3.8323    3.1217    3.0366 O   0  0  0  0  0  0  0  0  0  0  0  0
    3.8457    3.1483   -3.0395 O   0  0  0  0  0  0  0  0  0  0  0  0
    6.1236    1.8906    1.7925 C   0  0  0  0  0  0  0  0  0  0  0  0
    6.1221    1.8964   -1.7898 C   0  0  0  0  0  0  0  0  0  0  0  0
   -2.9017    5.1756    1.2173 N   0  0  0  0  0  0  0  0  0  0  0  0
   -3.5988    5.5014   -0.0045 C   0  0  2  0  0  0  0  0  0  0  0  0
   -4.8055    4.5218   -0.0026 C   0  0  2  0  0  0  0  0  0  0  0  0
   -4.6181    3.7604    1.2110 N   0  0  0  0  0  0  0  0  0  0  0  0
   -3.5262    4.1819    1.9364 C   0  0  0  0  0  0  0  0  0  0  0  0
   -2.8937    5.1626   -1.2192 N   0  0  0  0  0  0  0  0  0  0  0  0
   -3.5291    4.1785   -1.9433 C   0  0  0  0  0  0  0  0  0  0  0  0
   -4.6310    3.7741   -1.2250 N   0  0  0  0  0  0  0  0  0  0  0  0
   -3.1911    3.7707    3.0360 O   0  0  0  0  0  0  0  0  0  0  0  0
   -3.1940    3.7631   -3.0414 O   0  0  0  0  0  0  0  0  0  0  0  0
   -1.8939    6.0261    1.7964 C   0  0  0  0  0  0  0  0  0  0  0  0
   -1.8836    6.0098   -1.7999 C   0  0  0  0  0  0  0  0  0  0  0  0
   -6.6089   -3.9161   -0.0025 H   0  0  0  0  0  0  0  0  0  0  0  0
   -5.0078   -5.7641   -0.0125 H   0  0  0  0  0  0  0  0  0  0  0  0
   -1.8991   -7.3524   -0.0108 H   0  0  0  0  0  0  0  0  0  0  0  0
    0.5332   -7.5736    0.0065 H   0  0  0  0  0  0  0  0  0  0  0  0
   -0.5332    7.5742   -0.0057 H   0  0  0  0  0  0  0  0  0  0  0  0
    1.8992    7.3529    0.0142 H   0  0  0  0  0  0  0  0  0  0  0  0
    7.6926    0.5250   -0.0030 H   0  0  0  0  0  0  0  0  0  0  0  0
    7.4560   -1.9093   -0.0019 H   0  0  0  0  0  0  0  0  0  0  0  0
    3.8841   -6.5594    0.0095 H   0  0  0  0  0  0  0  0  0  0  0  0
    5.7819   -5.0194   -0.0109 H   0  0  0  0  0  0  0  0  0  0  0  0
    3.4541    6.5641   -1.6823 H   0  0  0  0  0  0  0  0  0  0  0  0
    2.8408    5.3613   -2.8526 H   0  0  0  0  0  0  0  0  0  0  0  0
   -2.8388   -5.3574    2.8547 H   0  0  0  0  0  0  0  0  0  0  0  0
   -3.4530   -6.5617    1.6863 H   0  0  0  0  0  0  0  0  0  0  0  0
    2.8222    5.3289    2.8616 H   0  0  0  0  0  0  0  0  0  0  0  0
    3.4428    6.5427    1.7056 H   0  0  0  0  0  0  0  0  0  0  0  0
   -2.8243   -5.3321   -2.8596 H   0  0  0  0  0  0  0  0  0  0  0  0
   -3.4436   -6.5447   -1.7017 H   0  0  0  0  0  0  0  0  0  0  0  0
   -7.6930   -0.5246    0.0031 H   0  0  0  0  0  0  0  0  0  0  0  0
   -7.4557    1.9097   -0.0030 H   0  0  0  0  0  0  0  0  0  0  0  0
   -5.8900   -1.8161   -2.8536 H   0  0  0  0  0  0  0  0  0  0  0  0
   -7.1624   -2.2254   -1.6682 H   0  0  0  0  0  0  0  0  0  0  0  0
   -5.8854   -1.8203    2.8521 H   0  0  0  0  0  0  0  0  0  0  0  0
   -7.1599   -2.2263    1.6670 H   0  0  0  0  0  0  0  0  0  0  0  0
   -6.6150    3.4725    1.6802 H   0  0  0  0  0  0  0  0  0  0  0  0
   -5.4298    2.8313    2.8537 H   0  0  0  0  0  0  0  0  0  0  0  0
   -6.6268    3.4617   -1.6771 H   0  0  0  0  0  0  0  0  0  0  0  0
   -5.4432    2.8263   -2.8556 H   0  0  0  0  0  0  0  0  0  0  0  0
    1.8185   -5.7801   -2.8566 H   0  0  0  0  0  0  0  0  0  0  0  0
    2.2076   -7.0707   -1.6843 H   0  0  0  0  0  0  0  0  0  0  0  0
    1.8077   -5.7543    2.8567 H   0  0  0  0  0  0  0  0  0  0  0  0
    2.2011   -7.0544    1.6960 H   0  0  0  0  0  0  0  0  0  0  0  0
    5.4254   -2.8281   -2.8558 H   0  0  0  0  0  0  0  0  0  0  0  0
    6.6125   -3.4705   -1.6849 H   0  0  0  0  0  0  0  0  0  0  0  0
    5.4489   -2.8305    2.8534 H   0  0  0  0  0  0  0  0  0  0  0  0
    6.6304   -3.4640    1.6718 H   0  0  0  0  0  0  0  0  0  0  0  0
    6.6086    3.9157    0.0054 H   0  0  0  0  0  0  0  0  0  0  0  0
    5.0080    5.7641    0.0170 H   0  0  0  0  0  0  0  0  0  0  0  0
    5.8879    1.8135    2.8542 H   0  0  0  0  0  0  0  0  0  0  0  0
    7.1610    2.2238    1.6699 H   0  0  0  0  0  0  0  0  0  0  0  0
    5.8860    1.8225   -2.8517 H   0  0  0  0  0  0  0  0  0  0  0  0
    7.1602    2.2276   -1.6659 H   0  0  0  0  0  0  0  0  0  0  0  0
   -3.8842    6.5592   -0.0109 H   0  0  0  0  0  0  0  0  0  0  0  0
   -5.7816    5.0188    0.0055 H   0  0  0  0  0  0  0  0  0  0  0  0
   -2.2093    7.0704    1.6835 H   0  0  0  0  0  0  0  0  0  0  0  0
   -1.8208    5.7798    2.8561 H   0  0  0  0  0  0  0  0  0  0  0  0
   -2.1998    7.0552   -1.6964 H   0  0  0  0  0  0  0  0  0  0  0  0
   -1.8051    5.7556   -2.8572 H   0  0  0  0  0  0  0  0  0  0  0  0
   -0.9160   -0.5850   -0.4370 O   0  0  0  0  0  0  0  0  0  0  0  0
    0.8980   -0.8710   -2.8040 C   0  0  0  0  0  0  0  0  0  0  0  0
    1.4100    0.2310   -2.2130 C   0  0  0  0  0  0  0  0  0  0  0  0
    0.6770    1.4350   -1.9640 C   0  0  0  0  0  0  0  0  0  0  0  0
   -0.6320    1.5110   -1.6860 C   0  0  0  0  0  0  0  0  0  0  0  0
   -1.4730    0.3010   -1.4000 C   0  0  0  0  0  0  0  0  0  0  0  0
   -1.5270   -0.4120   -2.7180 C   0  0  0  0  0  0  0  0  0  0  0  0
   -0.4520   -0.9960   -3.2650 C   0  0  0  0  0  0  0  0  0  0  0  0
    1.5710   -1.6760   -3.0700 H   0  0  0  0  0  0  0  0  0  0  0  0
    2.4760    0.2710   -2.0280 H   0  0  0  0  0  0  0  0  0  0  0  0
    1.2450    2.3560   -2.0310 H   0  0  0  0  0  0  0  0  0  0  0  0
   -1.1230    2.4720   -1.6290 H   0  0  0  0  0  0  0  0  0  0  0  0
   -2.4820    0.6010   -1.0880 H   0  0  0  0  0  0  0  0  0  0  0  0
   -2.4910   -0.4800   -3.2010 H   0  0  0  0  0  0  0  0  0  0  0  0
   -0.5920   -1.6070   -4.1480 H   0  0  0  0  0  0  0  0  0  0  0  0
   -1.4130   -0.5330    0.9090 C   0  0  0  0  0  0  0  0  0  0  0  0
   -1.5470    0.8720    1.4300 C   0  0  0  0  0  0  0  0  0  0  0  0
   -0.6100    1.6340    2.0090 C   0  0  0  0  0  0  0  0  0  0  0  0
    0.7190    1.2710    2.4160 C   0  0  0  0  0  0  0  0  0  0  0  0
    1.1650    0.0260    2.6740 C   0  0  0  0  0  0  0  0  0  0  0  0
    0.4100   -1.1920    2.5790 C   0  0  0  0  0  0  0  0  0  0  0  0
   -0.7000   -1.4390    1.8740 C   0  0  0  0  0  0  0  0  0  0  0  0
   -2.4260   -0.9340    0.7630 H   0  0  0  0  0  0  0  0  0  0  0  0
   -2.5160    1.3190    1.2470 H   0  0  0  0  0  0  0  0  0  0  0  0
   -0.8760    2.6630    2.2230 H   0  0  0  0  0  0  0  0  0  0  0  0
    1.3870    2.1010    2.6060 H   0  0  0  0  0  0  0  0  0  0  0  0
    2.1690   -0.0830    3.0620 H   0  0  0  0  0  0  0  0  0  0  0  0
    0.8110   -2.0110    3.1630 H   0  0  0  0  0  0  0  0  0  0  0  0
   -1.1420   -2.4210    1.9620 H   0  0  0  0  0  0  0  0  0  0  0  0
  1  2  1  0
  2 97  1  1
  2  6  1  0
  3 98  1  6
  3  2  1  0
  3  8  1  0
  4  3  1  0
  5  1  1  0
  5  4  1  0
  6 66  1  0
  6  7  1  0
  7 10  2  0
  8 52  1  0
  8  7  1  0
  9  5  2  0
 11 12  1  0
 12 99  1  6
 12 13  1  0
 12 16  1  0
 13100  1  1
 13 18  1  0
 14 13  1  0
 15 14  1  0
 15 11  1  0
 16 52  1  0
 16 17  1  0
 17 20  2  0
 18 70  1  0
 18 17  1  0
 19 15  2  0
 21 22  1  0
 22101  1  6
 22 23  1  0
 22 26  1  0
 23102  1  1
 23 28  1  0
 24 23  1  0
 25 21  1  0
 25 24  1  0
 26 95  1  0
 26 27  1  0
 27 30  2  0
 28 53  1  0
 28 27  1  0
 29 25  2  0
 31 32  1  0
 32103  1  1
 32 36  1  0
 33 32  1  0
 33104  1  6
 33 38  1  0
 34 33  1  0
 35 34  1  0
 35 31  1  0
 36 83  1  0
 36 37  1  0
 37 40  2  0
 38 72  1  0
 38 37  1  0
 39 35  2  0
 41 42  1  0
 42105  1  1
 42 46  1  0
 43106  1  6
 43 42  1  0
 43 48  1  0
 44 43  1  0
 45 41  1  0
 45 44  1  0
 46 70  1  0
 46 47  1  0
 47 50  2  0
 48 72  1  0
 48 47  1  0
 49 45  2  0
 51107  1  0
 51 80  1  0
 51 24  1  0
 52109  1  0
 53111  1  0
 54114  1  0
 54 11  1  0
 54  4  1  0
 55 56  1  0
 56 57  1  0
 56115  1  1
 56 60  1  0
 57116  1  6
 57 62  1  0
 58 57  1  0
 59 55  1  0
 59 58  1  0
 60 66  1  0
 60 61  1  0
 61 64  2  0
 62 67  1  0
 62 61  1  0
 63 59  2  0
 65118  1  0
 65  1  1  0
 65 55  1  0
 66119  1  0
 67122  1  0
 68123  1  0
 68 92  1  0
 68 58  1  0
 69126  1  0
 69 14  1  0
 69 41  1  0
 70127  1  0
 71130  1  0
 71 34  1  0
 71 44  1  0
 72131  1  0
 73 83  1  0
 73 77  1  0
 74133  1  6
 74 75  1  0
 74 73  1  0
 75134  1  1
 75 76  1  0
 76 53  1  0
 76 77  1  0
 77 81  2  0
 78 74  1  0
 79 80  1  0
 79 78  1  0
 80 75  1  0
 82 79  2  0
 83135  1  0
 84138  1  0
 84 31  1  0
 84 78  1  0
 85 95  1  0
 85 89  1  0
 86139  1  6
 86 87  1  0
 86 85  1  0
 87140  1  1
 87 88  1  0
 88 67  1  0
 88 89  1  0
 89 93  2  0
 90 86  1  0
 91 92  1  0
 91 90  1  0
 92 87  1  0
 94 91  2  0
 95142  1  0
 96143  1  0
 96 90  1  0
 96 21  1  0
108 51  1  0
110 52  1  0
112 53  1  0
113 54  1  0
117 65  1  0
120 66  1  0
121 67  1  0
124 68  1  0
125 69  1  0
128 70  1  0
129 71  1  0
132 72  1  0
136 83  1  0
137 84  1  0
141 95  1  0
144 96  1  0
145160  1  0
146147  2  0
147154  1  0
147148  1  0
148149  2  0
149156  1  0
149150  1  0
150157  1  0
150145  1  0
151150  1  0
152146  1  0
152151  2  0
153146  1  0
155148  1  0
158151  1  0
159152  1  0
160167  1  0
160161  1  0
160166  1  0
161162  2  0
162169  1  0
162163  1  0
163170  1  0
163164  2  0
164171  1  0
165164  1  0
165172  1  0
166173  1  0
166165  2  0
168161  1  0
M  END
$$$$
optlog.xyz
     RDKit          3D

173198  0  0  1  0  0  0  0  0999 V2000
   -5.2520   -2.8849   -1.2197 N   0  0  0  0  0  0  0  0  0  0  0  0
   -5.5609   -3.5977   -0.0027 C   0  0  1  0  0  0  0  0  0  0  0  0
   -4.5429   -4.7721   -0.0049 C   0  0  1  0  0  0  0  0  0  0  0  0
   -3.7892   -4.5604   -1.2189 N   0  0  0  0  0  0  0  0  0  0  0  0
   -4.2397   -3.4773   -1.9399 C   0  0  0  0  0  0  0  0  0  0  0  0
   -5.2500   -2.8879    1.2165 N   0  0  0  0  0  0  0  0  0  0  0  0
   -4.2453   -3.4901    1.9396 C   0  0  0  0  0  0  0  0  0  0  0  0
   -3.7995   -4.5743    1.2172 N   0  0  0  0  0  0  0  0  0  0  0  0
   -3.8357   -3.1257   -3.0370 O   0  0  0  0  0  0  0  0  0  0  0  0
   -3.8438   -3.1443    3.0396 O   0  0  0  0  0  0  0  0  0  0  0  0
   -1.6327   -5.6618   -1.2192 N   0  0  0  0  0  0  0  0  0  0  0  0
   -1.3661   -6.3954   -0.0038 C   0  0  1  0  0  0  0  0  0  0  0  0
    0.1814   -6.5361    0.0006 C   0  0  1  0  0  0  0  0  0  0  0  0
    0.5814   -5.8762   -1.2195 N   0  0  0  0  0  0  0  0  0  0  0  0
   -0.4902   -5.4034   -1.9430 C   0  0  0  0  0  0  0  0  0  0  0  0
   -1.6411   -5.6751    1.2168 N   0  0  0  0  0  0  0  0  0  0  0  0
   -0.5017   -5.4039    1.9408 C   0  0  0  0  0  0  0  0  0  0  0  0
    0.5758   -5.8631    1.2164 N   0  0  0  0  0  0  0  0  0  0  0  0
   -0.4398   -4.8784   -3.0440 O   0  0  0  0  0  0  0  0  0  0  0  0
   -0.4572   -4.8790    3.0422 O   0  0  0  0  0  0  0  0  0  0  0  0
   -0.5748    5.8636   -1.2157 N   0  0  0  0  0  0  0  0  0  0  0  0
   -0.1813    6.5367    0.0003 C   0  0  2  0  0  0  0  0  0  0  0  0
    1.3662    6.3959    0.0060 C   0  0  2  0  0  0  0  0  0  0  0  0
    1.6421    5.6766   -1.2150 N   0  0  0  0  0  0  0  0  0  0  0  0
    0.5032    5.4046   -1.9393 C   0  0  0  0  0  0  0  0  0  0  0  0
   -0.5823    5.8768    1.2202 N   0  0  0  0  0  0  0  0  0  0  0  0
    0.4887    5.4031    1.9440 C   0  0  0  0  0  0  0  0  0  0  0  0
    1.6318    5.6612    1.2209 N   0  0  0  0  0  0  0  0  0  0  0  0
    0.4595    4.8794   -3.0405 O   0  0  0  0  0  0  0  0  0  0  0  0
    0.4374    4.8775    3.0448 O   0  0  0  0  0  0  0  0  0  0  0  0
    5.9872    0.5809   -1.2187 N   0  0  0  0  0  0  0  0  0  0  0  0
    6.6534    0.1784   -0.0020 C   0  0  2  0  0  0  0  0  0  0  0  0
    6.5031   -1.3690   -0.0038 C   0  0  2  0  0  0  0  0  0  0  0  0
    5.7771   -1.6328   -1.2239 N   0  0  0  0  0  0  0  0  0  0  0  0
    5.5094   -0.4890   -1.9410 C   0  0  0  0  0  0  0  0  0  0  0  0
    5.9914    0.5765    1.2181 N   0  0  0  0  0  0  0  0  0  0  0  0
    5.5131   -0.4950    1.9374 C   0  0  0  0  0  0  0  0  0  0  0  0
    5.7707   -1.6368    1.2122 N   0  0  0  0  0  0  0  0  0  0  0  0
    4.9749   -0.4358   -3.0375 O   0  0  0  0  0  0  0  0  0  0  0  0
    4.9849   -0.4453    3.0370 O   0  0  0  0  0  0  0  0  0  0  0  0
    2.9014   -5.1763   -1.2190 N   0  0  0  0  0  0  0  0  0  0  0  0
    3.5990   -5.5016    0.0026 C   0  0  1  0  0  0  0  0  0  0  0  0
    4.8059   -4.5222   -0.0005 C   0  0  1  0  0  0  0  0  0  0  0  0
    4.6164   -3.7594   -1.2129 N   0  0  0  0  0  0  0  0  0  0  0  0
    3.5245   -4.1818   -1.9381 C   0  0  0  0  0  0  0  0  0  0  0  0
    2.8945   -5.1617    1.2175 N   0  0  0  0  0  0  0  0  0  0  0  0
    3.5315   -4.1786    1.9414 C   0  0  0  0  0  0  0  0  0  0  0  0
    4.6338   -3.7759    1.2230 N   0  0  0  0  0  0  0  0  0  0  0  0
    3.1884   -3.7705   -3.0374 O   0  0  0  0  0  0  0  0  0  0  0  0
    3.1971   -3.7628    3.0395 O   0  0  0  0  0  0  0  0  0  0  0  0
    2.9587    5.5920   -1.7934 C   0  0  0  0  0  0  0  0  0  0  0  0
   -2.9574   -5.5895    1.7959 C   0  0  0  0  0  0  0  0  0  0  0  0
    2.9453    5.5701    1.8054 C   0  0  0  0  0  0  0  0  0  0  0  0
   -2.9467   -5.5721   -1.8031 C   0  0  0  0  0  0  0  0  0  0  0  0
   -5.9923   -0.5779   -1.2184 N   0  0  0  0  0  0  0  0  0  0  0  0
   -6.6538   -0.1784    0.0014 C   0  0  2  0  0  0  0  0  0  0  0  0
   -6.5030    1.3690    0.0015 C   0  0  2  0  0  0  0  0  0  0  0  0
   -5.7678    1.6349   -1.2134 N   0  0  0  0  0  0  0  0  0  0  0  0
   -5.5109    0.4923   -1.9373 C   0  0  0  0  0  0  0  0  0  0  0  0
   -5.9872   -0.5797    1.2184 N   0  0  0  0  0  0  0  0  0  0  0  0
   -5.5113    0.4910    1.9408 C   0  0  0  0  0  0  0  0  0  0  0  0
   -5.7794    1.6341    1.2227 N   0  0  0  0  0  0  0  0  0  0  0  0
   -4.9808    0.4411   -3.0359 O   0  0  0  0  0  0  0  0  0  0  0  0
   -4.9780    0.4389    3.0378 O   0  0  0  0  0  0  0  0  0  0  0  0
   -6.1251   -1.8924   -1.7917 C   0  0  0  0  0  0  0  0  0  0  0  0
   -6.1218   -1.8949    1.7904 C   0  0  0  0  0  0  0  0  0  0  0  0
   -5.6575    2.9501    1.7940 C   0  0  0  0  0  0  0  0  0  0  0  0
   -5.6645    2.9491   -1.7950 C   0  0  0  0  0  0  0  0  0  0  0  0
    1.8925   -6.0263   -1.7970 C   0  0  0  0  0  0  0  0  0  0  0  0
    1.8851   -6.0089    1.7994 C   0  0  0  0  0  0  0  0  0  0  0  0
    5.6547   -2.9482   -1.7966 C   0  0  0  0  0  0  0  0  0  0  0  0
    5.6684   -2.9516    1.7922 C   0  0  0  0  0  0  0  0  0  0  0  0
    5.2508    2.8834    1.2207 N   0  0  0  0  0  0  0  0  0  0  0  0
    5.5605    3.5975    0.0046 C   0  0  2  0  0  0  0  0  0  0  0  0
    4.5429    4.7721    0.0076 C   0  0  2  0  0  0  0  0  0  0  0  0
    3.7877    4.5588    1.2205 N   0  0  0  0  0  0  0  0  0  0  0  0
    4.2375    3.4748    1.9405 C   0  0  0  0  0  0  0  0  0  0  0  0
    5.2501    2.8890   -1.2154 N   0  0  0  0  0  0  0  0  0  0  0  0
    4.2464    3.4926   -1.9388 C   0  0  0  0  0  0  0  0  0  0  0  0
    3.8006    4.5762   -1.2156 N   0  0  0  0  0  0  0  0  0  0  0  0
    3.8323    3.1217    3.0366 O   0  0  0  0  0  0  0  0  0  0  0  0
    3.8457    3.1483   -3.0395 O   0  0  0  0  0  0  0  0  0  0  0  0
    6.1236    1.8906    1.7925 C   0  0  0  0  0  0  0  0  0  0  0  0
    6.1221    1.8964   -1.7898 C   0  0  0  0  0  0  0  0  0  0  0  0
   -2.9017    5.1756    1.2173 N   0  0  0  0  0  0  0  0  0  0  0  0
   -3.5988    5.5014   -0.0045 C   0  0  2  0  0  0  0  0  0  0  0  0
   -4.8055    4.5218   -0.0026 C   0  0  2  0  0  0  0  0  0  0  0  0
   -4.6181    3.7604    1.2110 N   0  0  0  0  0  0  0  0  0  0  0  0
   -3.5262    4.1819    1.9364 C   0  0  0  0  0  0  0  0  0  0  0  0
   -2.8937    5.1626   -1.2192 N   0  0  0  0  0  0  0  0  0  0  0  0
   -3.5291    4.1785   -1.9433 C   0  0  0  0  0  0  0  0  0  0  0  0
   -4.6310    3.7741   -1.2250 N   0  0  0  0  0  0  0  0  0  0  0  0
   -3.1911    3.7707    3.0360 O   0  0  0  0  0  0  0  0  0  0  0  0
   -3.1940    3.7631   -3.0414 O   0  0  0  0  0  0  0  0  0  0  0  0
   -1.8939    6.0261    1.7964 C   0  0  0  0  0  0  0  0  0  0  0  0
   -1.8836    6.0098   -1.7999 C   0  0  0  0  0  0  0  0  0  0  0  0
   -6.6089   -3.9161   -0.0025 H   0  0  0  0  0  0  0  0  0  0  0  0
   -5.0078   -5.7641   -0.0125 H   0  0  0  0  0  0  0  0  0  0  0  0
   -1.8991   -7.3524   -0.0108 H   0  0  0  0  0  0  0  0  0  0  0  0
    0.5332   -7.5736    0.0065 H   0  0  0  0  0  0  0  0  0  0  0  0
   -0.5332    7.5742   -0.0057 H   0  0  0  0  0  0  0  0  0  0  0  0
    1.8992    7.3529    0.0142 H   0  0  0  0  0  0  0  0  0  0  0  0
    7.6926    0.5250   -0.0030 H   0  0  0  0  0  0  0  0  0  0  0  0
    7.4560   -1.9093   -0.0019 H   0  0  0  0  0  0  0  0  0  0  0  0
    3.8841   -6.5594    0.0095 H   0  0  0  0  0  0  0  0  0  0  0  0
    5.7819   -5.0194   -0.0109 H   0  0  0  0  0  0  0  0  0  0  0  0
    3.4541    6.5641   -1.6823 H   0  0  0  0  0  0  0  0  0  0  0  0
    2.8408    5.3613   -2.8526 H   0  0  0  0  0  0  0  0  0  0  0  0
   -2.8388   -5.3574    2.8547 H   0  0  0  0  0  0  0  0  0  0  0  0
   -3.4530   -6.5617    1.6863 H   0  0  0  0  0  0  0  0  0  0  0  0
    2.8222    5.3289    2.8616 H   0  0  0  0  0  0  0  0  0  0  0  0
    3.4428    6.5427    1.7056 H   0  0  0  0  0  0  0  0  0  0  0  0
   -2.8243   -5.3321   -2.8596 H   0  0  0  0  0  0  0  0  0  0  0  0
   -3.4436   -6.5447   -1.7017 H   0  0  0  0  0  0  0  0  0  0  0  0
   -7.6930   -0.5246    0.0031 H   0  0  0  0  0  0  0  0  0  0  0  0
   -7.4557    1.9097   -0.0030 H   0  0  0  0  0  0  0  0  0  0  0  0
   -5.8900   -1.8161   -2.8536 H   0  0  0  0  0  0  0  0  0  0  0  0
   -7.1624   -2.2254   -1.6682 H   0  0  0  0  0  0  0  0  0  0  0  0
   -5.8854   -1.8203    2.8521 H   0  0  0  0  0  0  0  0  0  0  0  0
   -7.1599   -2.2263    1.6670 H   0  0  0  0  0  0  0  0  0  0  0  0
   -6.6150    3.4725    1.6802 H   0  0  0  0  0  0  0  0  0  0  0  0
   -5.4298    2.8313    2.8537 H   0  0  0  0  0  0  0  0  0  0  0  0
   -6.6268    3.4617   -1.6771 H   0  0  0  0  0  0  0  0  0  0  0  0
   -5.4432    2.8263   -2.8556 H   0  0  0  0  0  0  0  0  0  0  0  0
    1.8185   -5.7801   -2.8566 H   0  0  0  0  0  0  0  0  0  0  0  0
    2.2076   -7.0707   -1.6843 H   0  0  0  0  0  0  0  0  0  0  0  0
    1.8077   -5.7543    2.8567 H   0  0  0  0  0  0  0  0  0  0  0  0
    2.2011   -7.0544    1.6960 H   0  0  0  0  0  0  0  0  0  0  0  0
    5.4254   -2.8281   -2.8558 H   0  0  0  0  0  0  0  0  0  0  0  0
    6.6125   -3.4705   -1.6849 H   0  0  0  0  0  0  0  0  0  0  0  0
    5.4489   -2.8305    2.8534 H   0  0  0  0  0  0  0  0  0  0  0  0
    6.6304   -3.4640    1.6718 H   0  0  0  0  0  0  0  0  0  0  0  0
    6.6086    3.9157    0.0054 H   0  0  0  0  0  0  0  0  0  0  0  0
    5.0080    5.7641    0.0170 H   0  0  0  0  0  0  0  0  0  0  0  0
    5.8879    1.8135    2.8542 H   0  0  0  0  0  0  0  0  0  0  0  0
    7.1610    2.2238    1.6699 H   0  0  0  0  0  0  0  0  0  0  0  0
    5.8860    1.8225   -2.8517 H   0  0  0  0  0  0  0  0  0  0  0  0
    7.1602    2.2276   -1.6659 H   0  0  0  0  0  0  0  0  0  0  0  0
   -3.8842    6.5592   -0.0109 H   0  0  0  0  0  0  0  0  0  0  0  0
   -5.7816    5.0188    0.0055 H   0  0  0  0  0  0  0  0  0  0  0  0
   -2.2093    7.0704    1.6835 H   0  0  0  0  0  0  0  0  0  0  0  0
   -1.8208    5.7798    2.8561 H   0  0  0  0  0  0  0  0  0  0  0  0
   -2.1998    7.0552   -1.6964 H   0  0  0  0  0  0  0  0  0  0  0  0
   -1.8051    5.7556   -2.8572 H   0  0  0  0  0  0  0  0  0  0  0  0
    0.2290    0.9890   -0.4060 O   0  0  0  0  0  0  0  0  0  0  0  0
   -0.9810    0.7370   -3.1350 C   0  0  0  0  0  0  0  0  0  0  0  0
   -1.5240   -0.3300   -2.5080 C   0  0  0  0  0  0  0  0  0  0  0  0
   -0.7730   -1.3940   -1.9140 C   0  0  0  0  0  0  0  0  0  0  0  0
    0.4320   -1.2740   -1.3400 C   0  0  0  0  0  0  0  0  0  0  0  0
    1.0740    0.0550   -1.0660 C   0  0  0  0  0  0  0  0  0  0  0  0
    1.3820    0.5870   -2.4340 C   0  0  0  0  0  0  0  0  0  0  0  0
    0.4250    0.9600   -3.2940 C   0  0  0  0  0  0  0  0  0  0  0  0
   -1.6360    1.4130   -3.6690 H   0  0  0  0  0  0  0  0  0  0  0  0
   -2.5960   -0.4720   -2.5640 H   0  0  0  0  0  0  0  0  0  0  0  0
   -1.2280   -2.3760   -1.9600 H   0  0  0  0  0  0  0  0  0  0  0  0
    0.9760   -2.1530   -1.0230 H   0  0  0  0  0  0  0  0  0  0  0  0
    2.0000   -0.0780   -0.4920 H   0  0  0  0  0  0  0  0  0  0  0  0
    2.4250    0.7050   -2.6920 H   0  0  0  0  0  0  0  0  0  0  0  0
    0.7200    1.4600   -4.2080 H   0  0  0  0  0  0  0  0  0  0  0  0
    0.5040    1.3100    0.9660 C   0  0  0  0  0  0  0  0  0  0  0  0
    1.6280    0.4930    1.5440 C   0  0  0  0  0  0  0  0  0  0  0  0
    1.5680   -0.7240    2.0980 C   0  0  0  0  0  0  0  0  0  0  0  0
    0.4090   -1.5100    2.4180 C   0  0  0  0  0  0  0  0  0  0  0  0
   -0.8430   -1.0510    2.6070 C   0  0  0  0  0  0  0  0  0  0  0  0
   -1.2790    0.3140    2.5090 C   0  0  0  0  0  0  0  0  0  0  0  0
   -0.7060    1.3340    1.8580 C   0  0  0  0  0  0  0  0  0  0  0  0
    0.8600    2.3440    0.8620 H   0  0  0  0  0  0  0  0  0  0  0  0
    2.6040    0.9470    1.4300 H   0  0  0  0  0  0  0  0  0  0  0  0
    2.5100   -1.1900    2.3640 H   0  0  0  0  0  0  0  0  0  0  0  0
    0.6000   -2.5600    2.6010 H   0  0  0  0  0  0  0  0  0  0  0  0
   -1.5980   -1.7530    2.9350 H   0  0  0  0  0  0  0  0  0  0  0  0
   -2.1980    0.5270    3.0410 H   0  0  0  0  0  0  0  0  0  0  0  0
   -1.1760    2.3040    1.9340 H   0  0  0  0  0  0  0  0  0  0  0  0
  1  2  1  0
  2 97  1  1
  2  6  1  0
  3 98  1  6
  3  2  1  0
  3  8  1  0
  4  3  1  0
  5  1  1  0
  5  4  1  0
  6 66  1  0
  6  7  1  0
  7 10  2  0
  8 52  1  0
  8  7  1  0
  9  5  2  0
 11 12  1  0
 12 99  1  6
 12 13  1  0
 12 16  1  0
 13100  1  1
 13 18  1  0
 14 13  1  0
 15 14  1  0
 15 11  1  0
 16 52  1  0
 16 17  1  0
 17 20  2  0
 18 70  1  0
 18 17  1  0
 19 15  2  0
 21 22  1  0
 22101  1  6
 22 23  1  0
 22 26  1  0
 23102  1  1
 23 28  1  0
 24 23  1  0
 25 21  1  0
 25 24  1  0
 26 95  1  0
 26 27  1  0
 27 30  2  0
 28 53  1  0
 28 27  1  0
 29 25  2  0
 31 32  1  0
 32103  1  1
 32 36  1  0
 33 32  1  0
 33104  1  6
 33 38  1  0
 34 33  1  0
 35 34  1  0
 35 31  1  0
 36 83  1  0
 36 37  1  0
 37 40  2  0
 38 72  1  0
 38 37  1  0
 39 35  2  0
 41 42  1  0
 42105  1  1
 42 46  1  0
 43106  1  6
 43 42  1  0
 43 48  1  0
 44 43  1  0
 45 41  1  0
 45 44  1  0
 46 70  1  0
 46 47  1  0
 47 50  2  0
 48 72  1  0
 48 47  1  0
 49 45  2  0
 51107  1  0
 51 80  1  0
 51 24  1  0
 52109  1  0
 53111  1  0
 54114  1  0
 54 11  1  0
 54  4  1  0
 55 56  1  0
 56 57  1  0
 56115  1  1
 56 60  1  0
 57116  1  6
 57 62  1  0
 58 57  1  0
 59 55  1  0
 59 58  1  0
 60 66  1  0
 60 61  1  0
 61 64  2  0
 62 67  1  0
 62 61  1  0
 63 59  2  0
 65118  1  0
 65  1  1  0
 65 55  1  0
 66119  1  0
 67122  1  0
 68123  1  0
 68 92  1  0
 68 58  1  0
 69126  1  0
 69 14  1  0
 69 41  1  0
 70127  1  0
 71130  1  0
 71 34  1  0
 71 44  1  0
 72131  1  0
 73 83  1  0
 73 77  1  0
 74133  1  6
 74 75  1  0
 74 73  1  0
 75134  1  1
 75 76  1  0
 76 53  1  0
 76 77  1  0
 77 81  2  0
 78 74  1  0
 79 80  1  0
 79 78  1  0
 80 75  1  0
 82 79  2  0
 83135  1  0
 84138  1  0
 84 31  1  0
 84 78  1  0
 85 95  1  0
 85 89  1  0
 86139  1  6
 86 87  1  0
 86 85  1  0
 87140  1  1
 87 88  1  0
 88 67  1  0
 88 89  1  0
 89 93  2  0
 90 86  1  0
 91 92  1  0
 91 90  1  0
 92 87  1  0
 94 91  2  0
 95142  1  0
 96143  1  0
 96 90  1  0
 96 21  1  0
108 51  1  0
110 52  1  0
112 53  1  0
113 54  1  0
117 65  1  0
120 66  1  0
121 67  1  0
124 68  1  0
125 69  1  0
128 70  1  0
129 71  1  0
132 72  1  0
136 83  1  0
137 84  1  0
141 95  1  0
144 96  1  0
145160  1  0
146147  2  0
147148  1  0
148149  2  0
149150  1  0
149156  1  0
150157  1  0
150145  1  0
151150  1  0
152146  1  0
152151  2  0
153146  1  0
154147  1  0
155148  1  0
158151  1  0
159152  1  0
160167  1  0
160161  1  0
160166  1  0
161162  2  0
162169  1  0
162163  1  0
163170  1  0
163164  2  0
164171  1  0
165164  1  0
165172  1  0
166173  1  0
166165  2  0
168161  1  0
M  END
$$$$
optlog.xyz
     RDKit          3D

173198  0  0  1  0  0  0  0  0999 V2000
   -5.2520   -2.8849   -1.2197 N   0  0  0  0  0  0  0  0  0  0  0  0
   -5.5609   -3.5977   -0.0027 C   0  0  1  0  0  0  0  0  0  0  0  0
   -4.5429   -4.7721   -0.0049 C   0  0  1  0  0  0  0  0  0  0  0  0
   -3.7892   -4.5604   -1.2189 N   0  0  0  0  0  0  0  0  0  0  0  0
   -4.2397   -3.4773   -1.9399 C   0  0  0  0  0  0  0  0  0  0  0  0
   -5.2500   -2.8879    1.2165 N   0  0  0  0  0  0  0  0  0  0  0  0
   -4.2453   -3.4901    1.9396 C   0  0  0  0  0  0  0  0  0  0  0  0
   -3.7995   -4.5743    1.2172 N   0  0  0  0  0  0  0  0  0  0  0  0
   -3.8357   -3.1257   -3.0370 O   0  0  0  0  0  0  0  0  0  0  0  0
   -3.8438   -3.1443    3.0396 O   0  0  0  0  0  0  0  0  0  0  0  0
   -1.6327   -5.6618   -1.2192 N   0  0  0  0  0  0  0  0  0  0  0  0
   -1.3661   -6.3954   -0.0038 C   0  0  1  0  0  0  0  0  0  0  0  0
    0.1814   -6.5361    0.0006 C   0  0  1  0  0  0  0  0  0  0  0  0
    0.5814   -5.8762   -1.2195 N   0  0  0  0  0  0  0  0  0  0  0  0
   -0.4902   -5.4034   -1.9430 C   0  0  0  0  0  0  0  0  0  0  0  0
   -1.6411   -5.6751    1.2168 N   0  0  0  0  0  0  0  0  0  0  0  0
   -0.5017   -5.4039    1.9408 C   0  0  0  0  0  0  0  0  0  0  0  0
    0.5758   -5.8631    1.2164 N   0  0  0  0  0  0  0  0  0  0  0  0
   -0.4398   -4.8784   -3.0440 O   0  0  0  0  0  0  0  0  0  0  0  0
   -0.4572   -4.8790    3.0422 O   0  0  0  0  0  0  0  0  0  0  0  0
   -0.5748    5.8636   -1.2157 N   0  0  0  0  0  0  0  0  0  0  0  0
   -0.1813    6.5367    0.0003 C   0  0  2  0  0  0  0  0  0  0  0  0
    1.3662    6.3959    0.0060 C   0  0  2  0  0  0  0  0  0  0  0  0
    1.6421    5.6766   -1.2150 N   0  0  0  0  0  0  0  0  0  0  0  0
    0.5032    5.4046   -1.9393 C   0  0  0  0  0  0  0  0  0  0  0  0
   -0.5823    5.8768    1.2202 N   0  0  0  0  0  0  0  0  0  0  0  0
    0.4887    5.4031    1.9440 C   0  0  0  0  0  0  0  0  0  0  0  0
    1.6318    5.6612    1.2209 N   0  0  0  0  0  0  0  0  0  0  0  0
    0.4595    4.8794   -3.0405 O   0  0  0  0  0  0  0  0  0  0  0  0
    0.4374    4.8775    3.0448 O   0  0  0  0  0  0  0  0  0  0  0  0
    5.9872    0.5809   -1.2187 N   0  0  0  0  0  0  0  0  0  0  0  0
    6.6534    0.1784   -0.0020 C   0  0  2  0  0  0  0  0  0  0  0  0
    6.5031   -1.3690   -0.0038 C   0  0  2  0  0  0  0  0  0  0  0  0
    5.7771   -1.6328   -1.2239 N   0  0  0  0  0  0  0  0  0  0  0  0
    5.5094   -0.4890   -1.9410 C   0  0  0  0  0  0  0  0  0  0  0  0
    5.9914    0.5765    1.2181 N   0  0  0  0  0  0  0  0  0  0  0  0
    5.5131   -0.4950    1.9374 C   0  0  0  0  0  0  0  0  0  0  0  0
    5.7707   -1.6368    1.2122 N   0  0  0  0  0  0  0  0  0  0  0  0
    4.9749   -0.4358   -3.0375 O   0  0  0  0  0  0  0  0  0  0  0  0
    4.9849   -0.4453    3.0370 O   0  0  0  0  0  0  0  0  0  0  0  0
    2.9014   -5.1763   -1.2190 N   0  0  0  0  0  0  0  0  0  0  0  0
    3.5990   -5.5016    0.0026 C   0  0  1  0  0  0  0  0  0  0  0  0
    4.8059   -4.5222   -0.0005 C   0  0  1  0  0  0  0  0  0  0  0  0
    4.6164   -3.7594   -1.2129 N   0  0  0  0  0  0  0  0  0  0  0  0
    3.5245   -4.1818   -1.9381 C   0  0  0  0  0  0  0  0  0  0  0  0
    2.8945   -5.1617    1.2175 N   0  0  0  0  0  0  0  0  0  0  0  0
    3.5315   -4.1786    1.9414 C   0  0  0  0  0  0  0  0  0  0  0  0
    4.6338   -3.7759    1.2230 N   0  0  0  0  0  0  0  0  0  0  0  0
    3.1884   -3.7705   -3.0374 O   0  0  0  0  0  0  0  0  0  0  0  0
    3.1971   -3.7628    3.0395 O   0  0  0  0  0  0  0  0  0  0  0  0
    2.9587    5.5920   -1.7934 C   0  0  0  0  0  0  0  0  0  0  0  0
   -2.9574   -5.5895    1.7959 C   0  0  0  0  0  0  0  0  0  0  0  0
    2.9453    5.5701    1.8054 C   0  0  0  0  0  0  0  0  0  0  0  0
   -2.9467   -5.5721   -1.8031 C   0  0  0  0  0  0  0  0  0  0  0  0
   -5.9923   -0.5779   -1.2184 N   0  0  0  0  0  0  0  0  0  0  0  0
   -6.6538   -0.1784    0.0014 C   0  0  2  0  0  0  0  0  0  0  0  0
   -6.5030    1.3690    0.0015 C   0  0  2  0  0  0  0  0  0  0  0  0
   -5.7678    1.6349   -1.2134 N   0  0  0  0  0  0  0  0  0  0  0  0
   -5.5109    0.4923   -1.9373 C   0  0  0  0  0  0  0  0  0  0  0  0
   -5.9872   -0.5797    1.2184 N   0  0  0  0  0  0  0  0  0  0  0  0
   -5.5113    0.4910    1.9408 C   0  0  0  0  0  0  0  0  0  0  0  0
   -5.7794    1.6341    1.2227 N   0  0  0  0  0  0  0  0  0  0  0  0
   -4.9808    0.4411   -3.0359 O   0  0  0  0  0  0  0  0  0  0  0  0
   -4.9780    0.4389    3.0378 O   0  0  0  0  0  0  0  0  0  0  0  0
   -6.1251   -1.8924   -1.7917 C   0  0  0  0  0  0  0  0  0  0  0  0
   -6.1218   -1.8949    1.7904 C   0  0  0  0  0  0  0  0  0  0  0  0
   -5.6575    2.9501    1.7940 C   0  0  0  0  0  0  0  0  0  0  0  0
   -5.6645    2.9491   -1.7950 C   0  0  0  0  0  0  0  0  0  0  0  0
    1.8925   -6.0263   -1.7970 C   0  0  0  0  0  0  0  0  0  0  0  0
    1.8851   -6.0089    1.7994 C   0  0  0  0  0  0  0  0  0  0  0  0
    5.6547   -2.9482   -1.7966 C   0  0  0  0  0  0  0  0  0  0  0  0
    5.6684   -2.9516    1.7922 C   0  0  0  0  0  0  0  0  0  0  0  0
    5.2508    2.8834    1.2207 N   0  0  0  0  0  0  0  0  0  0  0  0
    5.5605    3.5975    0.0046 C   0  0  2  0  0  0  0  0  0  0  0  0
    4.5429    4.7721    0.0076 C   0  0  2  0  0  0  0  0  0  0  0  0
    3.7877    4.5588    1.2205 N   0  0  0  0  0  0  0  0  0  0  0  0
    4.2375    3.4748    1.9405 C   0  0  0  0  0  0  0  0  0  0  0  0
    5.2501    2.8890   -1.2154 N   0  0  0  0  0  0  0  0  0  0  0  0
    4.2464    3.4926   -1.9388 C   0  0  0  0  0  0  0  0  0  0  0  0
    3.8006    4.5762   -1.2156 N   0  0  0  0  0  0  0  0  0  0  0  0
    3.8323    3.1217    3.0366 O   0  0  0  0  0  0  0  0  0  0  0  0
    3.8457    3.1483   -3.0395 O   0  0  0  0  0  0  0  0  0  0  0  0
    6.1236    1.8906    1.7925 C   0  0  0  0  0  0  0  0  0  0  0  0
    6.1221    1.8964   -1.7898 C   0  0  0  0  0  0  0  0  0  0  0  0
   -2.9017    5.1756    1.2173 N   0  0  0  0  0  0  0  0  0  0  0  0
   -3.5988    5.5014   -0.0045 C   0  0  2  0  0  0  0  0  0  0  0  0
   -4.8055    4.5218   -0.0026 C   0  0  2  0  0  0  0  0  0  0  0  0
   -4.6181    3.7604    1.2110 N   0  0  0  0  0  0  0  0  0  0  0  0
   -3.5262    4.1819    1.9364 C   0  0  0  0  0  0  0  0  0  0  0  0
   -2.8937    5.1626   -1.2192 N   0  0  0  0  0  0  0  0  0  0  0  0
   -3.5291    4.1785   -1.9433 C   0  0  0  0  0  0  0  0  0  0  0  0
   -4.6310    3.7741   -1.2250 N   0  0  0  0  0  0  0  0  0  0  0  0
   -3.1911    3.7707    3.0360 O   0  0  0  0  0  0  0  0  0  0  0  0
   -3.1940    3.7631   -3.0414 O   0  0  0  0  0  0  0  0  0  0  0  0
   -1.8939    6.0261    1.7964 C   0  0  0  0  0  0  0  0  0  0  0  0
   -1.8836    6.0098   -1.7999 C   0  0  0  0  0  0  0  0  0  0  0  0
   -6.6089   -3.9161   -0.0025 H   0  0  0  0  0  0  0  0  0  0  0  0
   -5.0078   -5.7641   -0.0125 H   0  0  0  0  0  0  0  0  0  0  0  0
   -1.8991   -7.3524   -0.0108 H   0  0  0  0  0  0  0  0  0  0  0  0
    0.5332   -7.5736    0.0065 H   0  0  0  0  0  0  0  0  0  0  0  0
   -0.5332    7.5742   -0.0057 H   0  0  0  0  0  0  0  0  0  0  0  0
    1.8992    7.3529    0.0142 H   0  0  0  0  0  0  0  0  0  0  0  0
    7.6926    0.5250   -0.0030 H   0  0  0  0  0  0  0  0  0  0  0  0
    7.4560   -1.9093   -0.0019 H   0  0  0  0  0  0  0  0  0  0  0  0
    3.8841   -6.5594    0.0095 H   0  0  0  0  0  0  0  0  0  0  0  0
    5.7819   -5.0194   -0.0109 H   0  0  0  0  0  0  0  0  0  0  0  0
    3.4541    6.5641   -1.6823 H   0  0  0  0  0  0  0  0  0  0  0  0
    2.8408    5.3613   -2.8526 H   0  0  0  0  0  0  0  0  0  0  0  0
   -2.8388   -5.3574    2.8547 H   0  0  0  0  0  0  0  0  0  0  0  0
   -3.4530   -6.5617    1.6863 H   0  0  0  0  0  0  0  0  0  0  0  0
    2.8222    5.3289    2.8616 H   0  0  0  0  0  0  0  0  0  0  0  0
    3.4428    6.5427    1.7056 H   0  0  0  0  0  0  0  0  0  0  0  0
   -2.8243   -5.3321   -2.8596 H   0  0  0  0  0  0  0  0  0  0  0  0
   -3.4436   -6.5447   -1.7017 H   0  0  0  0  0  0  0  0  0  0  0  0
   -7.6930   -0.5246    0.0031 H   0  0  0  0  0  0  0  0  0  0  0  0
   -7.4557    1.9097   -0.0030 H   0  0  0  0  0  0  0  0  0  0  0  0
   -5.8900   -1.8161   -2.8536 H   0  0  0  0  0  0  0  0  0  0  0  0
   -7.1624   -2.2254   -1.6682 H   0  0  0  0  0  0  0  0  0  0  0  0
   -5.8854   -1.8203    2.8521 H   0  0  0  0  0  0  0  0  0  0  0  0
   -7.1599   -2.2263    1.6670 H   0  0  0  0  0  0  0  0  0  0  0  0
   -6.6150    3.4725    1.6802 H   0  0  0  0  0  0  0  0  0  0  0  0
   -5.4298    2.8313    2.8537 H   0  0  0  0  0  0  0  0  0  0  0  0
   -6.6268    3.4617   -1.6771 H   0  0  0  0  0  0  0  0  0  0  0  0
   -5.4432    2.8263   -2.8556 H   0  0  0  0  0  0  0  0  0  0  0  0
    1.8185   -5.7801   -2.8566 H   0  0  0  0  0  0  0  0  0  0  0  0
    2.2076   -7.0707   -1.6843 H   0  0  0  0  0  0  0  0  0  0  0  0
    1.8077   -5.7543    2.8567 H   0  0  0  0  0  0  0  0  0  0  0  0
    2.2011   -7.0544    1.6960 H   0  0  0  0  0  0  0  0  0  0  0  0
    5.4254   -2.8281   -2.8558 H   0  0  0  0  0  0  0  0  0  0  0  0
    6.6125   -3.4705   -1.6849 H   0  0  0  0  0  0  0  0  0  0  0  0
    5.4489   -2.8305    2.8534 H   0  0  0  0  0  0  0  0  0  0  0  0
    6.6304   -3.4640    1.6718 H   0  0  0  0  0  0  0  0  0  0  0  0
    6.6086    3.9157    0.0054 H   0  0  0  0  0  0  0  0  0  0  0  0
    5.0080    5.7641    0.0170 H   0  0  0  0  0  0  0  0  0  0  0  0
    5.8879    1.8135    2.8542 H   0  0  0  0  0  0  0  0  0  0  0  0
    7.1610    2.2238    1.6699 H   0  0  0  0  0  0  0  0  0  0  0  0
    5.8860    1.8225   -2.8517 H   0  0  0  0  0  0  0  0  0  0  0  0
    7.1602    2.2276   -1.6659 H   0  0  0  0  0  0  0  0  0  0  0  0
   -3.8842    6.5592   -0.0109 H   0  0  0  0  0  0  0  0  0  0  0  0
   -5.7816    5.0188    0.0055 H   0  0  0  0  0  0  0  0  0  0  0  0
   -2.2093    7.0704    1.6835 H   0  0  0  0  0  0  0  0  0  0  0  0
   -1.8208    5.7798    2.8561 H   0  0  0  0  0  0  0  0  0  0  0  0
   -2.1998    7.0552   -1.6964 H   0  0  0  0  0  0  0  0  0  0  0  0
   -1.8051    5.7556   -2.8572 H   0  0  0  0  0  0  0  0  0  0  0  0
    0.4770    0.8470    0.4430 O   0  0  0  0  0  0  0  0  0  0  0  0
    0.0540   -0.9410    2.8100 C   0  0  0  0  0  0  0  0  0  0  0  0
   -0.8810   -1.4110    1.9560 C   0  0  0  0  0  0  0  0  0  0  0  0
   -1.9440   -0.6280    1.4020 C   0  0  0  0  0  0  0  0  0  0  0  0
   -1.8820    0.6780    1.1090 C   0  0  0  0  0  0  0  0  0  0  0  0
   -0.6000    1.4590    1.1420 C   0  0  0  0  0  0  0  0  0  0  0  0
   -0.2500    1.5000    2.6010 C   0  0  0  0  0  0  0  0  0  0  0  0
    0.1210    0.4090    3.2830 C   0  0  0  0  0  0  0  0  0  0  0  0
    0.7300   -1.6460    3.2760 H   0  0  0  0  0  0  0  0  0  0  0  0
   -0.9240   -2.4770    1.7700 H   0  0  0  0  0  0  0  0  0  0  0  0
   -2.8770   -1.1520    1.2300 H   0  0  0  0  0  0  0  0  0  0  0  0
   -2.7710    1.2130    0.8040 H   0  0  0  0  0  0  0  0  0  0  0  0
   -0.7600    2.4750    0.7600 H   0  0  0  0  0  0  0  0  0  0  0  0
   -0.2620    2.4680    3.0810 H   0  0  0  0  0  0  0  0  0  0  0  0
    0.4890    0.5340    4.2940 H   0  0  0  0  0  0  0  0  0  0  0  0
    0.7600    1.2850   -0.8940 C   0  0  0  0  0  0  0  0  0  0  0  0
   -0.4830    1.5800   -1.6900 C   0  0  0  0  0  0  0  0  0  0  0  0
   -1.2390    0.7270   -2.3920 C   0  0  0  0  0  0  0  0  0  0  0  0
   -0.9920   -0.6550   -2.6940 C   0  0  0  0  0  0  0  0  0  0  0  0
    0.2040   -1.2750   -2.6890 C   0  0  0  0  0  0  0  0  0  0  0  0
    1.4740   -0.6850   -2.3640 C   0  0  0  0  0  0  0  0  0  0  0  0
    1.7290    0.4140   -1.6450 C   0  0  0  0  0  0  0  0  0  0  0  0
    1.2620    2.2400   -0.6890 H   0  0  0  0  0  0  0  0  0  0  0  0
   -0.8170    2.6070   -1.6180 H   0  0  0  0  0  0  0  0  0  0  0  0
   -2.1580    1.1180   -2.8150 H   0  0  0  0  0  0  0  0  0  0  0  0
   -1.8540   -1.2140   -3.0350 H   0  0  0  0  0  0  0  0  0  0  0  0
    0.2470   -2.3010   -3.0290 H   0  0  0  0  0  0  0  0  0  0  0  0
    2.3270   -1.2180   -2.7650 H   0  0  0  0  0  0  0  0  0  0  0  0
    2.7620    0.7170   -1.5410 H   0  0  0  0  0  0  0  0  0  0  0  0
  1  2  1  0
  2 97  1  1
  2  6  1  0
  3 98  1  6
  3  2  1  0
  3  8  1  0
  4  3  1  0
  5  1  1  0
  5  4  1  0
  6 66  1  0
  6  7  1  0
  7 10  2  0
  8 52  1  0
  8  7  1  0
  9  5  2  0
 11 12  1  0
 12 99  1  6
 12 13  1  0
 12 16  1  0
 13100  1  1
 13 18  1  0
 14 13  1  0
 15 14  1  0
 15 11  1  0
 16 52  1  0
 16 17  1  0
 17 20  2  0
 18 70  1  0
 18 17  1  0
 19 15  2  0
 21 22  1  0
 22101  1  6
 22 23  1  0
 22 26  1  0
 23102  1  1
 23 28  1  0
 24 23  1  0
 25 21  1  0
 25 24  1  0
 26 95  1  0
 26 27  1  0
 27 30  2  0
 28 53  1  0
 28 27  1  0
 29 25  2  0
 31 32  1  0
 32103  1  1
 32 36  1  0
 33 32  1  0
 33104  1  6
 33 38  1  0
 34 33  1  0
 35 34  1  0
 35 31  1  0
 36 83  1  0
 36 37  1  0
 37 40  2  0
 38 72  1  0
 38 37  1  0
 39 35  2  0
 41 42  1  0
 42105  1  1
 42 46  1  0
 43106  1  6
 43 42  1  0
 43 48  1  0
 44 43  1  0
 45 41  1  0
 45 44  1  0
 46 70  1  0
 46 47  1  0
 47 50  2  0
 48 72  1  0
 48 47  1  0
 49 45  2  0
 51107  1  0
 51 80  1  0
 51 24  1  0
 52109  1  0
 53111  1  0
 54114  1  0
 54 11  1  0
 54  4  1  0
 55 56  1  0
 56 57  1  0
 56115  1  1
 56 60  1  0
 57116  1  6
 57 62  1  0
 58 57  1  0
 59 55  1  0
 59 58  1  0
 60 66  1  0
 60 61  1  0
 61 64  2  0
 62 67  1  0
 62 61  1  0
 63 59  2  0
 65118  1  0
 65  1  1  0
 65 55  1  0
 66119  1  0
 67122  1  0
 68123  1  0
 68 92  1  0
 68 58  1  0
 69126  1  0
 69 14  1  0
 69 41  1  0
 70127  1  0
 71130  1  0
 71 34  1  0
 71 44  1  0
 72131  1  0
 73 83  1  0
 73 77  1  0
 74133  1  6
 74 75  1  0
 74 73  1  0
 75134  1  1
 75 76  1  0
 76 53  1  0
 76 77  1  0
 77 81  2  0
 78 74  1  0
 79 80  1  0
 79 78  1  0
 80 75  1  0
 82 79  2  0
 83135  1  0
 84138  1  0
 84 31  1  0
 84 78  1  0
 85 95  1  0
 85 89  1  0
 86139  1  6
 86 87  1  0
 86 85  1  0
 87140  1  1
 87 88  1  0
 88 67  1  0
 88 89  1  0
 89 93  2  0
 90 86  1  0
 91 92  1  0
 91 90  1  0
 92 87  1  0
 94 91  2  0
 95142  1  0
 96143  1  0
 96 90  1  0
 96 21  1  0
108 51  1  0
110 52  1  0
112 53  1  0
113 54  1  0
117 65  1  0
120 66  1  0
121 67  1  0
124 68  1  0
125 69  1  0
128 70  1  0
129 71  1  0
132 72  1  0
136 83  1  0
137 84  1  0
141 95  1  0
144 96  1  0
145150  1  0
146153  1  0
146152  1  0
147146  2  0
148147  1  0
149150  1  0
149148  2  0
150157  1  0
150151  1  0
151158  1  0
151152  2  0
152159  1  0
154147  1  0
155148  1  0
156149  1  0
160167  1  0
160145  1  0
161168  1  0
161160  1  0
162161  2  0
163164  2  0
163162  1  0
164165  1  0
165166  2  0
166173  1  0
166160  1  0
169162  1  0
170163  1  0
171164  1  0
172165  1  0
M  END
$$$$
optlog.xyz
     RDKit          3D

173198  0  0  1  0  0  0  0  0999 V2000
   -5.2520   -2.8849   -1.2197 N   0  0  0  0  0  0  0  0  0  0  0  0
   -5.5609   -3.5977   -0.0027 C   0  0  1  0  0  0  0  0  0  0  0  0
   -4.5429   -4.7721   -0.0049 C   0  0  1  0  0  0  0  0  0  0  0  0
   -3.7892   -4.5604   -1.2189 N   0  0  0  0  0  0  0  0  0  0  0  0
   -4.2397   -3.4773   -1.9399 C   0  0  0  0  0  0  0  0  0  0  0  0
   -5.2500   -2.8879    1.2165 N   0  0  0  0  0  0  0  0  0  0  0  0
   -4.2453   -3.4901    1.9396 C   0  0  0  0  0  0  0  0  0  0  0  0
   -3.7995   -4.5743    1.2172 N   0  0  0  0  0  0  0  0  0  0  0  0
   -3.8357   -3.1257   -3.0370 O   0  0  0  0  0  0  0  0  0  0  0  0
   -3.8438   -3.1443    3.0396 O   0  0  0  0  0  0  0  0  0  0  0  0
   -1.6327   -5.6618   -1.2192 N   0  0  0  0  0  0  0  0  0  0  0  0
   -1.3661   -6.3954   -0.0038 C   0  0  1  0  0  0  0  0  0  0  0  0
    0.1814   -6.5361    0.0006 C   0  0  1  0  0  0  0  0  0  0  0  0
    0.5814   -5.8762   -1.2195 N   0  0  0  0  0  0  0  0  0  0  0  0
   -0.4902   -5.4034   -1.9430 C   0  0  0  0  0  0  0  0  0  0  0  0
   -1.6411   -5.6751    1.2168 N   0  0  0  0  0  0  0  0  0  0  0  0
   -0.5017   -5.4039    1.9408 C   0  0  0  0  0  0  0  0  0  0  0  0
    0.5758   -5.8631    1.2164 N   0  0  0  0  0  0  0  0  0  0  0  0
   -0.4398   -4.8784   -3.0440 O   0  0  0  0  0  0  0  0  0  0  0  0
   -0.4572   -4.8790    3.0422 O   0  0  0  0  0  0  0  0  0  0  0  0
   -0.5748    5.8636   -1.2157 N   0  0  0  0  0  0  0  0  0  0  0  0
   -0.1813    6.5367    0.0003 C   0  0  2  0  0  0  0  0  0  0  0  0
    1.3662    6.3959    0.0060 C   0  0  2  0  0  0  0  0  0  0  0  0
    1.6421    5.6766   -1.2150 N   0  0  0  0  0  0  0  0  0  0  0  0
    0.5032    5.4046   -1.9393 C   0  0  0  0  0  0  0  0  0  0  0  0
   -0.5823    5.8768    1.2202 N   0  0  0  0  0  0  0  0  0  0  0  0
    0.4887    5.4031    1.9440 C   0  0  0  0  0  0  0  0  0  0  0  0
    1.6318    5.6612    1.2209 N   0  0  0  0  0  0  0  0  0  0  0  0
    0.4595    4.8794   -3.0405 O   0  0  0  0  0  0  0  0  0  0  0  0
    0.4374    4.8775    3.0448 O   0  0  0  0  0  0  0  0  0  0  0  0
    5.9872    0.5809   -1.2187 N   0  0  0  0  0  0  0  0  0  0  0  0
    6.6534    0.1784   -0.0020 C   0  0  2  0  0  0  0  0  0  0  0  0
    6.5031   -1.3690   -0.0038 C   0  0  2  0  0  0  0  0  0  0  0  0
    5.7771   -1.6328   -1.2239 N   0  0  0  0  0  0  0  0  0  0  0  0
    5.5094   -0.4890   -1.9410 C   0  0  0  0  0  0  0  0  0  0  0  0
    5.9914    0.5765    1.2181 N   0  0  0  0  0  0  0  0  0  0  0  0
    5.5131   -0.4950    1.9374 C   0  0  0  0  0  0  0  0  0  0  0  0
    5.7707   -1.6368    1.2122 N   0  0  0  0  0  0  0  0  0  0  0  0
    4.9749   -0.4358   -3.0375 O   0  0  0  0  0  0  0  0  0  0  0  0
    4.9849   -0.4453    3.0370 O   0  0  0  0  0  0  0  0  0  0  0  0
    2.9014   -5.1763   -1.2190 N   0  0  0  0  0  0  0  0  0  0  0  0
    3.5990   -5.5016    0.0026 C   0  0  1  0  0  0  0  0  0  0  0  0
    4.8059   -4.5222   -0.0005 C   0  0  1  0  0  0  0  0  0  0  0  0
    4.6164   -3.7594   -1.2129 N   0  0  0  0  0  0  0  0  0  0  0  0
    3.5245   -4.1818   -1.9381 C   0  0  0  0  0  0  0  0  0  0  0  0
    2.8945   -5.1617    1.2175 N   0  0  0  0  0  0  0  0  0  0  0  0
    3.5315   -4.1786    1.9414 C   0  0  0  0  0  0  0  0  0  0  0  0
    4.6338   -3.7759    1.2230 N   0  0  0  0  0  0  0  0  0  0  0  0
    3.1884   -3.7705   -3.0374 O   0  0  0  0  0  0  0  0  0  0  0  0
    3.1971   -3.7628    3.0395 O   0  0  0  0  0  0  0  0  0  0  0  0
    2.9587    5.5920   -1.7934 C   0  0  0  0  0  0  0  0  0  0  0  0
   -2.9574   -5.5895    1.7959 C   0  0  0  0  0  0  0  0  0  0  0  0
    2.9453    5.5701    1.8054 C   0  0  0  0  0  0  0  0  0  0  0  0
   -2.9467   -5.5721   -1.8031 C   0  0  0  0  0  0  0  0  0  0  0  0
   -5.9923   -0.5779   -1.2184 N   0  0  0  0  0  0  0  0  0  0  0  0
   -6.6538   -0.1784    0.0014 C   0  0  2  0  0  0  0  0  0  0  0  0
   -6.5030    1.3690    0.0015 C   0  0  2  0  0  0  0  0  0  0  0  0
   -5.7678    1.6349   -1.2134 N   0  0  0  0  0  0  0  0  0  0  0  0
   -5.5109    0.4923   -1.9373 C   0  0  0  0  0  0  0  0  0  0  0  0
   -5.9872   -0.5797    1.2184 N   0  0  0  0  0  0  0  0  0  0  0  0
   -5.5113    0.4910    1.9408 C   0  0  0  0  0  0  0  0  0  0  0  0
   -5.7794    1.6341    1.2227 N   0  0  0  0  0  0  0  0  0  0  0  0
   -4.9808    0.4411   -3.0359 O   0  0  0  0  0  0  0  0  0  0  0  0
   -4.9780    0.4389    3.0378 O   0  0  0  0  0  0  0  0  0  0  0  0
   -6.1251   -1.8924   -1.7917 C   0  0  0  0  0  0  0  0  0  0  0  0
   -6.1218   -1.8949    1.7904 C   0  0  0  0  0  0  0  0  0  0  0  0
   -5.6575    2.9501    1.7940 C   0  0  0  0  0  0  0  0  0  0  0  0
   -5.6645    2.9491   -1.7950 C   0  0  0  0  0  0  0  0  0  0  0  0
    1.8925   -6.0263   -1.7970 C   0  0  0  0  0  0  0  0  0  0  0  0
    1.8851   -6.0089    1.7994 C   0  0  0  0  0  0  0  0  0  0  0  0
    5.6547   -2.9482   -1.7966 C   0  0  0  0  0  0  0  0  0  0  0  0
    5.6684   -2.9516    1.7922 C   0  0  0  0  0  0  0  0  0  0  0  0
    5.2508    2.8834    1.2207 N   0  0  0  0  0  0  0  0  0  0  0  0
    5.5605    3.5975    0.0046 C   0  0  2  0  0  0  0  0  0  0  0  0
    4.5429    4.7721    0.0076 C   0  0  2  0  0  0  0  0  0  0  0  0
    3.7877    4.5588    1.2205 N   0  0  0  0  0  0  0  0  0  0  0  0
    4.2375    3.4748    1.9405 C   0  0  0  0  0  0  0  0  0  0  0  0
    5.2501    2.8890   -1.2154 N   0  0  0  0  0  0  0  0  0  0  0  0
    4.2464    3.4926   -1.9388 C   0  0  0  0  0  0  0  0  0  0  0  0
    3.8006    4.5762   -1.2156 N   0  0  0  0  0  0  0  0  0  0  0  0
    3.8323    3.1217    3.0366 O   0  0  0  0  0  0  0  0  0  0  0  0
    3.8457    3.1483   -3.0395 O   0  0  0  0  0  0  0  0  0  0  0  0
    6.1236    1.8906    1.7925 C   0  0  0  0  0  0  0  0  0  0  0  0
    6.1221    1.8964   -1.7898 C   0  0  0  0  0  0  0  0  0  0  0  0
   -2.9017    5.1756    1.2173 N   0  0  0  0  0  0  0  0  0  0  0  0
   -3.5988    5.5014   -0.0045 C   0  0  2  0  0  0  0  0  0  0  0  0
   -4.8055    4.5218   -0.0026 C   0  0  2  0  0  0  0  0  0  0  0  0
   -4.6181    3.7604    1.2110 N   0  0  0  0  0  0  0  0  0  0  0  0
   -3.5262    4.1819    1.9364 C   0  0  0  0  0  0  0  0  0  0  0  0
   -2.8937    5.1626   -1.2192 N   0  0  0  0  0  0  0  0  0  0  0  0
   -3.5291    4.1785   -1.9433 C   0  0  0  0  0  0  0  0  0  0  0  0
   -4.6310    3.7741   -1.2250 N   0  0  0  0  0  0  0  0  0  0  0  0
   -3.1911    3.7707    3.0360 O   0  0  0  0  0  0  0  0  0  0  0  0
   -3.1940    3.7631   -3.0414 O   0  0  0  0  0  0  0  0  0  0  0  0
   -1.8939    6.0261    1.7964 C   0  0  0  0  0  0  0  0  0  0  0  0
   -1.8836    6.0098   -1.7999 C   0  0  0  0  0  0  0  0  0  0  0  0
   -6.6089   -3.9161   -0.0025 H   0  0  0  0  0  0  0  0  0  0  0  0
   -5.0078   -5.7641   -0.0125 H   0  0  0  0  0  0  0  0  0  0  0  0
   -1.8991   -7.3524   -0.0108 H   0  0  0  0  0  0  0  0  0  0  0  0
    0.5332   -7.5736    0.0065 H   0  0  0  0  0  0  0  0  0  0  0  0
   -0.5332    7.5742   -0.0057 H   0  0  0  0  0  0  0  0  0  0  0  0
    1.8992    7.3529    0.0142 H   0  0  0  0  0  0  0  0  0  0  0  0
    7.6926    0.5250   -0.0030 H   0  0  0  0  0  0  0  0  0  0  0  0
    7.4560   -1.9093   -0.0019 H   0  0  0  0  0  0  0  0  0  0  0  0
    3.8841   -6.5594    0.0095 H   0  0  0  0  0  0  0  0  0  0  0  0
    5.7819   -5.0194   -0.0109 H   0  0  0  0  0  0  0  0  0  0  0  0
    3.4541    6.5641   -1.6823 H   0  0  0  0  0  0  0  0  0  0  0  0
    2.8408    5.3613   -2.8526 H   0  0  0  0  0  0  0  0  0  0  0  0
   -2.8388   -5.3574    2.8547 H   0  0  0  0  0  0  0  0  0  0  0  0
   -3.4530   -6.5617    1.6863 H   0  0  0  0  0  0  0  0  0  0  0  0
    2.8222    5.3289    2.8616 H   0  0  0  0  0  0  0  0  0  0  0  0
    3.4428    6.5427    1.7056 H   0  0  0  0  0  0  0  0  0  0  0  0
   -2.8243   -5.3321   -2.8596 H   0  0  0  0  0  0  0  0  0  0  0  0
   -3.4436   -6.5447   -1.7017 H   0  0  0  0  0  0  0  0  0  0  0  0
   -7.6930   -0.5246    0.0031 H   0  0  0  0  0  0  0  0  0  0  0  0
   -7.4557    1.9097   -0.0030 H   0  0  0  0  0  0  0  0  0  0  0  0
   -5.8900   -1.8161   -2.8536 H   0  0  0  0  0  0  0  0  0  0  0  0
   -7.1624   -2.2254   -1.6682 H   0  0  0  0  0  0  0  0  0  0  0  0
   -5.8854   -1.8203    2.8521 H   0  0  0  0  0  0  0  0  0  0  0  0
   -7.1599   -2.2263    1.6670 H   0  0  0  0  0  0  0  0  0  0  0  0
   -6.6150    3.4725    1.6802 H   0  0  0  0  0  0  0  0  0  0  0  0
   -5.4298    2.8313    2.8537 H   0  0  0  0  0  0  0  0  0  0  0  0
   -6.6268    3.4617   -1.6771 H   0  0  0  0  0  0  0  0  0  0  0  0
   -5.4432    2.8263   -2.8556 H   0  0  0  0  0  0  0  0  0  0  0  0
    1.8185   -5.7801   -2.8566 H   0  0  0  0  0  0  0  0  0  0  0  0
    2.2076   -7.0707   -1.6843 H   0  0  0  0  0  0  0  0  0  0  0  0
    1.8077   -5.7543    2.8567 H   0  0  0  0  0  0  0  0  0  0  0  0
    2.2011   -7.0544    1.6960 H   0  0  0  0  0  0  0  0  0  0  0  0
    5.4254   -2.8281   -2.8558 H   0  0  0  0  0  0  0  0  0  0  0  0
    6.6125   -3.4705   -1.6849 H   0  0  0  0  0  0  0  0  0  0  0  0
    5.4489   -2.8305    2.8534 H   0  0  0  0  0  0  0  0  0  0  0  0
    6.6304   -3.4640    1.6718 H   0  0  0  0  0  0  0  0  0  0  0  0
    6.6086    3.9157    0.0054 H   0  0  0  0  0  0  0  0  0  0  0  0
    5.0080    5.7641    0.0170 H   0  0  0  0  0  0  0  0  0  0  0  0
    5.8879    1.8135    2.8542 H   0  0  0  0  0  0  0  0  0  0  0  0
    7.1610    2.2238    1.6699 H   0  0  0  0  0  0  0  0  0  0  0  0
    5.8860    1.8225   -2.8517 H   0  0  0  0  0  0  0  0  0  0  0  0
    7.1602    2.2276   -1.6659 H   0  0  0  0  0  0  0  0  0  0  0  0
   -3.8842    6.5592   -0.0109 H   0  0  0  0  0  0  0  0  0  0  0  0
   -5.7816    5.0188    0.0055 H   0  0  0  0  0  0  0  0  0  0  0  0
   -2.2093    7.0704    1.6835 H   0  0  0  0  0  0  0  0  0  0  0  0
   -1.8208    5.7798    2.8561 H   0  0  0  0  0  0  0  0  0  0  0  0
   -2.1998    7.0552   -1.6964 H   0  0  0  0  0  0  0  0  0  0  0  0
   -1.8051    5.7556   -2.8572 H   0  0  0  0  0  0  0  0  0  0  0  0
    1.0490   -0.2490    0.3260 O   0  0  0  0  0  0  0  0  0  0  0  0
   -0.9660   -0.8860    2.4500 C   0  0  0  0  0  0  0  0  0  0  0  0
   -1.3310    0.3690    2.1100 C   0  0  0  0  0  0  0  0  0  0  0  0
   -0.4790    1.5160    2.1970 C   0  0  0  0  0  0  0  0  0  0  0  0
    0.8490    1.5190    2.0200 C   0  0  0  0  0  0  0  0  0  0  0  0
    1.6020    0.3280    1.5020 C   0  0  0  0  0  0  0  0  0  0  0  0
    1.4890   -0.6730    2.6140 C   0  0  0  0  0  0  0  0  0  0  0  0
    0.3270   -1.2530    2.9430 C   0  0  0  0  0  0  0  0  0  0  0  0
   -1.7250   -1.6570    2.4770 H   0  0  0  0  0  0  0  0  0  0  0  0
   -2.3720    0.5610    1.8790 H   0  0  0  0  0  0  0  0  0  0  0  0
   -0.9680    2.4500    2.4480 H   0  0  0  0  0  0  0  0  0  0  0  0
    1.4250    2.4110    2.2220 H   0  0  0  0  0  0  0  0  0  0  0  0
    2.6550    0.5860    1.3280 H   0  0  0  0  0  0  0  0  0  0  0  0
    2.4020   -0.9490    3.1200 H   0  0  0  0  0  0  0  0  0  0  0  0
    0.3430   -2.0630    3.6620 H   0  0  0  0  0  0  0  0  0  0  0  0
    1.4520    0.2760   -0.9480 C   0  0  0  0  0  0  0  0  0  0  0  0
    0.6750    1.5010   -1.3490 C   0  0  0  0  0  0  0  0  0  0  0  0
   -0.5070    1.5660   -1.9730 C   0  0  0  0  0  0  0  0  0  0  0  0
   -1.2780    0.5000   -2.5520 C   0  0  0  0  0  0  0  0  0  0  0  0
   -0.8130   -0.7000   -2.9480 C   0  0  0  0  0  0  0  0  0  0  0  0
    0.5420   -1.1680   -2.8560 C   0  0  0  0  0  0  0  0  0  0  0  0
    1.5230   -0.7440   -2.0500 C   0  0  0  0  0  0  0  0  0  0  0  0
    2.4790    0.5900   -0.7190 H   0  0  0  0  0  0  0  0  0  0  0  0
    1.1250    2.4310   -1.0260 H   0  0  0  0  0  0  0  0  0  0  0  0
   -0.9530    2.5480   -2.0820 H   0  0  0  0  0  0  0  0  0  0  0  0
   -2.3140    0.7380   -2.7560 H   0  0  0  0  0  0  0  0  0  0  0  0
   -1.4970   -1.3690   -3.4530 H   0  0  0  0  0  0  0  0  0  0  0  0
    0.7830   -1.9730   -3.5390 H   0  0  0  0  0  0  0  0  0  0  0  0
    2.4950   -1.2050   -2.1580 H   0  0  0  0  0  0  0  0  0  0  0  0
  1  2  1  0
  2 97  1  1
  2  6  1  0
  3 98  1  6
  3  2  1  0
  3  8  1  0
  4  3  1  0
  5  1  1  0
  5  4  1  0
  6 66  1  0
  6  7  1  0
  7 10  2  0
  8 52  1  0
  8  7  1  0
  9  5  2  0
 11 12  1  0
 12 99  1  6
 12 13  1  0
 12 16  1  0
 13100  1  1
 13 18  1  0
 14 13  1  0
 15 14  1  0
 15 11  1  0
 16 52  1  0
 16 17  1  0
 17 20  2  0
 18 70  1  0
 18 17  1  0
 19 15  2  0
 21 22  1  0
 22101  1  6
 22 23  1  0
 22 26  1  0
 23102  1  1
 23 28  1  0
 24 23  1  0
 25 21  1  0
 25 24  1  0
 26 95  1  0
 26 27  1  0
 27 30  2  0
 28 53  1  0
 28 27  1  0
 29 25  2  0
 31 32  1  0
 32103  1  1
 32 36  1  0
 33 32  1  0
 33104  1  6
 33 38  1  0
 34 33  1  0
 35 34  1  0
 35 31  1  0
 36 83  1  0
 36 37  1  0
 37 40  2  0
 38 72  1  0
 38 37  1  0
 39 35  2  0
 41 42  1  0
 42105  1  1
 42 46  1  0
 43106  1  6
 43 42  1  0
 43 48  1  0
 44 43  1  0
 45 41  1  0
 45 44  1  0
 46 70  1  0
 46 47  1  0
 47 50  2  0
 48 72  1  0
 48 47  1  0
 49 45  2  0
 51107  1  0
 51 80  1  0
 51 24  1  0
 52109  1  0
 53111  1  0
 54114  1  0
 54 11  1  0
 54  4  1  0
 55 56  1  0
 56 57  1  0
 56115  1  1
 56 60  1  0
 57116  1  6
 57 62  1  0
 58 57  1  0
 59 55  1  0
 59 58  1  0
 60 66  1  0
 60 61  1  0
 61 64  2  0
 62 67  1  0
 62 61  1  0
 63 59  2  0
 65118  1  0
 65  1  1  0
 65 55  1  0
 66119  1  0
 67122  1  0
 68123  1  0
 68 92  1  0
 68 58  1  0
 69126  1  0
 69 14  1  0
 69 41  1  0
 70127  1  0
 71130  1  0
 71 34  1  0
 71 44  1  0
 72131  1  0
 73 83  1  0
 73 77  1  0
 74133  1  6
 74 75  1  0
 74 73  1  0
 75134  1  1
 75 76  1  0
 76 53  1  0
 76 77  1  0
 77 81  2  0
 78 74  1  0
 79 80  1  0
 79 78  1  0
 80 75  1  0
 82 79  2  0
 83135  1  0
 84138  1  0
 84 31  1  0
 84 78  1  0
 85 95  1  0
 85 89  1  0
 86139  1  6
 86 87  1  0
 86 85  1  0
 87140  1  1
 87 88  1  0
 88 67  1  0
 88 89  1  0
 89 93  2  0
 90 86  1  0
 91 92  1  0
 91 90  1  0
 92 87  1  0
 94 91  2  0
 95142  1  0
 96143  1  0
 96 90  1  0
 96 21  1  0
108 51  1  0
110 52  1  0
112 53  1  0
113 54  1  0
117 65  1  0
120 66  1  0
121 67  1  0
124 68  1  0
125 69  1  0
128 70  1  0
129 71  1  0
132 72  1  0
136 83  1  0
137 84  1  0
141 95  1  0
144 96  1  0
145150  1  0
146153  1  0
146152  1  0
147148  1  0
147146  2  0
148155  1  0
149148  2  0
149156  1  0
150157  1  0
150149  1  0
150151  1  0
151152  2  0
151158  1  0
152159  1  0
154147  1  0
160167  1  0
160145  1  0
161168  1  0
161160  1  0
162161  2  0
163162  1  0
164165  1  0
164163  2  0
165166  2  0
166160  1  0
169162  1  0
170163  1  0
171164  1  0
172165  1  0
173166  1  0
M  END
$$$$
optlog.xyz
     RDKit          3D

173198  0  0  1  0  0  0  0  0999 V2000
   -5.2520   -2.8849   -1.2197 N   0  0  0  0  0  0  0  0  0  0  0  0
   -5.5609   -3.5977   -0.0027 C   0  0  1  0  0  0  0  0  0  0  0  0
   -4.5429   -4.7721   -0.0049 C   0  0  1  0  0  0  0  0  0  0  0  0
   -3.7892   -4.5604   -1.2189 N   0  0  0  0  0  0  0  0  0  0  0  0
   -4.2397   -3.4773   -1.9399 C   0  0  0  0  0  0  0  0  0  0  0  0
   -5.2500   -2.8879    1.2165 N   0  0  0  0  0  0  0  0  0  0  0  0
   -4.2453   -3.4901    1.9396 C   0  0  0  0  0  0  0  0  0  0  0  0
   -3.7995   -4.5743    1.2172 N   0  0  0  0  0  0  0  0  0  0  0  0
   -3.8357   -3.1257   -3.0370 O   0  0  0  0  0  0  0  0  0  0  0  0
   -3.8438   -3.1443    3.0396 O   0  0  0  0  0  0  0  0  0  0  0  0
   -1.6327   -5.6618   -1.2192 N   0  0  0  0  0  0  0  0  0  0  0  0
   -1.3661   -6.3954   -0.0038 C   0  0  1  0  0  0  0  0  0  0  0  0
    0.1814   -6.5361    0.0006 C   0  0  1  0  0  0  0  0  0  0  0  0
    0.5814   -5.8762   -1.2195 N   0  0  0  0  0  0  0  0  0  0  0  0
   -0.4902   -5.4034   -1.9430 C   0  0  0  0  0  0  0  0  0  0  0  0
   -1.6411   -5.6751    1.2168 N   0  0  0  0  0  0  0  0  0  0  0  0
   -0.5017   -5.4039    1.9408 C   0  0  0  0  0  0  0  0  0  0  0  0
    0.5758   -5.8631    1.2164 N   0  0  0  0  0  0  0  0  0  0  0  0
   -0.4398   -4.8784   -3.0440 O   0  0  0  0  0  0  0  0  0  0  0  0
   -0.4572   -4.8790    3.0422 O   0  0  0  0  0  0  0  0  0  0  0  0
   -0.5748    5.8636   -1.2157 N   0  0  0  0  0  0  0  0  0  0  0  0
   -0.1813    6.5367    0.0003 C   0  0  2  0  0  0  0  0  0  0  0  0
    1.3662    6.3959    0.0060 C   0  0  2  0  0  0  0  0  0  0  0  0
    1.6421    5.6766   -1.2150 N   0  0  0  0  0  0  0  0  0  0  0  0
    0.5032    5.4046   -1.9393 C   0  0  0  0  0  0  0  0  0  0  0  0
   -0.5823    5.8768    1.2202 N   0  0  0  0  0  0  0  0  0  0  0  0
    0.4887    5.4031    1.9440 C   0  0  0  0  0  0  0  0  0  0  0  0
    1.6318    5.6612    1.2209 N   0  0  0  0  0  0  0  0  0  0  0  0
    0.4595    4.8794   -3.0405 O   0  0  0  0  0  0  0  0  0  0  0  0
    0.4374    4.8775    3.0448 O   0  0  0  0  0  0  0  0  0  0  0  0
    5.9872    0.5809   -1.2187 N   0  0  0  0  0  0  0  0  0  0  0  0
    6.6534    0.1784   -0.0020 C   0  0  2  0  0  0  0  0  0  0  0  0
    6.5031   -1.3690   -0.0038 C   0  0  2  0  0  0  0  0  0  0  0  0
    5.7771   -1.6328   -1.2239 N   0  0  0  0  0  0  0  0  0  0  0  0
    5.5094   -0.4890   -1.9410 C   0  0  0  0  0  0  0  0  0  0  0  0
    5.9914    0.5765    1.2181 N   0  0  0  0  0  0  0  0  0  0  0  0
    5.5131   -0.4950    1.9374 C   0  0  0  0  0  0  0  0  0  0  0  0
    5.7707   -1.6368    1.2122 N   0  0  0  0  0  0  0  0  0  0  0  0
    4.9749   -0.4358   -3.0375 O   0  0  0  0  0  0  0  0  0  0  0  0
    4.9849   -0.4453    3.0370 O   0  0  0  0  0  0  0  0  0  0  0  0
    2.9014   -5.1763   -1.2190 N   0  0  0  0  0  0  0  0  0  0  0  0
    3.5990   -5.5016    0.0026 C   0  0  1  0  0  0  0  0  0  0  0  0
    4.8059   -4.5222   -0.0005 C   0  0  1  0  0  0  0  0  0  0  0  0
    4.6164   -3.7594   -1.2129 N   0  0  0  0  0  0  0  0  0  0  0  0
    3.5245   -4.1818   -1.9381 C   0  0  0  0  0  0  0  0  0  0  0  0
    2.8945   -5.1617    1.2175 N   0  0  0  0  0  0  0  0  0  0  0  0
    3.5315   -4.1786    1.9414 C   0  0  0  0  0  0  0  0  0  0  0  0
    4.6338   -3.7759    1.2230 N   0  0  0  0  0  0  0  0  0  0  0  0
    3.1884   -3.7705   -3.0374 O   0  0  0  0  0  0  0  0  0  0  0  0
    3.1971   -3.7628    3.0395 O   0  0  0  0  0  0  0  0  0  0  0  0
    2.9587    5.5920   -1.7934 C   0  0  0  0  0  0  0  0  0  0  0  0
   -2.9574   -5.5895    1.7959 C   0  0  0  0  0  0  0  0  0  0  0  0
    2.9453    5.5701    1.8054 C   0  0  0  0  0  0  0  0  0  0  0  0
   -2.9467   -5.5721   -1.8031 C   0  0  0  0  0  0  0  0  0  0  0  0
   -5.9923   -0.5779   -1.2184 N   0  0  0  0  0  0  0  0  0  0  0  0
   -6.6538   -0.1784    0.0014 C   0  0  2  0  0  0  0  0  0  0  0  0
   -6.5030    1.3690    0.0015 C   0  0  2  0  0  0  0  0  0  0  0  0
   -5.7678    1.6349   -1.2134 N   0  0  0  0  0  0  0  0  0  0  0  0
   -5.5109    0.4923   -1.9373 C   0  0  0  0  0  0  0  0  0  0  0  0
   -5.9872   -0.5797    1.2184 N   0  0  0  0  0  0  0  0  0  0  0  0
   -5.5113    0.4910    1.9408 C   0  0  0  0  0  0  0  0  0  0  0  0
   -5.7794    1.6341    1.2227 N   0  0  0  0  0  0  0  0  0  0  0  0
   -4.9808    0.4411   -3.0359 O   0  0  0  0  0  0  0  0  0  0  0  0
   -4.9780    0.4389    3.0378 O   0  0  0  0  0  0  0  0  0  0  0  0
   -6.1251   -1.8924   -1.7917 C   0  0  0  0  0  0  0  0  0  0  0  0
   -6.1218   -1.8949    1.7904 C   0  0  0  0  0  0  0  0  0  0  0  0
   -5.6575    2.9501    1.7940 C   0  0  0  0  0  0  0  0  0  0  0  0
   -5.6645    2.9491   -1.7950 C   0  0  0  0  0  0  0  0  0  0  0  0
    1.8925   -6.0263   -1.7970 C   0  0  0  0  0  0  0  0  0  0  0  0
    1.8851   -6.0089    1.7994 C   0  0  0  0  0  0  0  0  0  0  0  0
    5.6547   -2.9482   -1.7966 C   0  0  0  0  0  0  0  0  0  0  0  0
    5.6684   -2.9516    1.7922 C   0  0  0  0  0  0  0  0  0  0  0  0
    5.2508    2.8834    1.2207 N   0  0  0  0  0  0  0  0  0  0  0  0
    5.5605    3.5975    0.0046 C   0  0  2  0  0  0  0  0  0  0  0  0
    4.5429    4.7721    0.0076 C   0  0  2  0  0  0  0  0  0  0  0  0
    3.7877    4.5588    1.2205 N   0  0  0  0  0  0  0  0  0  0  0  0
    4.2375    3.4748    1.9405 C   0  0  0  0  0  0  0  0  0  0  0  0
    5.2501    2.8890   -1.2154 N   0  0  0  0  0  0  0  0  0  0  0  0
    4.2464    3.4926   -1.9388 C   0  0  0  0  0  0  0  0  0  0  0  0
    3.8006    4.5762   -1.2156 N   0  0  0  0  0  0  0  0  0  0  0  0
    3.8323    3.1217    3.0366 O   0  0  0  0  0  0  0  0  0  0  0  0
    3.8457    3.1483   -3.0395 O   0  0  0  0  0  0  0  0  0  0  0  0
    6.1236    1.8906    1.7925 C   0  0  0  0  0  0  0  0  0  0  0  0
    6.1221    1.8964   -1.7898 C   0  0  0  0  0  0  0  0  0  0  0  0
   -2.9017    5.1756    1.2173 N   0  0  0  0  0  0  0  0  0  0  0  0
   -3.5988    5.5014   -0.0045 C   0  0  2  0  0  0  0  0  0  0  0  0
   -4.8055    4.5218   -0.0026 C   0  0  2  0  0  0  0  0  0  0  0  0
   -4.6181    3.7604    1.2110 N   0  0  0  0  0  0  0  0  0  0  0  0
   -3.5262    4.1819    1.9364 C   0  0  0  0  0  0  0  0  0  0  0  0
   -2.8937    5.1626   -1.2192 N   0  0  0  0  0  0  0  0  0  0  0  0
   -3.5291    4.1785   -1.9433 C   0  0  0  0  0  0  0  0  0  0  0  0
   -4.6310    3.7741   -1.2250 N   0  0  0  0  0  0  0  0  0  0  0  0
   -3.1911    3.7707    3.0360 O   0  0  0  0  0  0  0  0  0  0  0  0
   -3.1940    3.7631   -3.0414 O   0  0  0  0  0  0  0  0  0  0  0  0
   -1.8939    6.0261    1.7964 C   0  0  0  0  0  0  0  0  0  0  0  0
   -1.8836    6.0098   -1.7999 C   0  0  0  0  0  0  0  0  0  0  0  0
   -6.6089   -3.9161   -0.0025 H   0  0  0  0  0  0  0  0  0  0  0  0
   -5.0078   -5.7641   -0.0125 H   0  0  0  0  0  0  0  0  0  0  0  0
   -1.8991   -7.3524   -0.0108 H   0  0  0  0  0  0  0  0  0  0  0  0
    0.5332   -7.5736    0.0065 H   0  0  0  0  0  0  0  0  0  0  0  0
   -0.5332    7.5742   -0.0057 H   0  0  0  0  0  0  0  0  0  0  0  0
    1.8992    7.3529    0.0142 H   0  0  0  0  0  0  0  0  0  0  0  0
    7.6926    0.5250   -0.0030 H   0  0  0  0  0  0  0  0  0  0  0  0
    7.4560   -1.9093   -0.0019 H   0  0  0  0  0  0  0  0  0  0  0  0
    3.8841   -6.5594    0.0095 H   0  0  0  0  0  0  0  0  0  0  0  0
    5.7819   -5.0194   -0.0109 H   0  0  0  0  0  0  0  0  0  0  0  0
    3.4541    6.5641   -1.6823 H   0  0  0  0  0  0  0  0  0  0  0  0
    2.8408    5.3613   -2.8526 H   0  0  0  0  0  0  0  0  0  0  0  0
   -2.8388   -5.3574    2.8547 H   0  0  0  0  0  0  0  0  0  0  0  0
   -3.4530   -6.5617    1.6863 H   0  0  0  0  0  0  0  0  0  0  0  0
    2.8222    5.3289    2.8616 H   0  0  0  0  0  0  0  0  0  0  0  0
    3.4428    6.5427    1.7056 H   0  0  0  0  0  0  0  0  0  0  0  0
   -2.8243   -5.3321   -2.8596 H   0  0  0  0  0  0  0  0  0  0  0  0
   -3.4436   -6.5447   -1.7017 H   0  0  0  0  0  0  0  0  0  0  0  0
   -7.6930   -0.5246    0.0031 H   0  0  0  0  0  0  0  0  0  0  0  0
   -7.4557    1.9097   -0.0030 H   0  0  0  0  0  0  0  0  0  0  0  0
   -5.8900   -1.8161   -2.8536 H   0  0  0  0  0  0  0  0  0  0  0  0
   -7.1624   -2.2254   -1.6682 H   0  0  0  0  0  0  0  0  0  0  0  0
   -5.8854   -1.8203    2.8521 H   0  0  0  0  0  0  0  0  0  0  0  0
   -7.1599   -2.2263    1.6670 H   0  0  0  0  0  0  0  0  0  0  0  0
   -6.6150    3.4725    1.6802 H   0  0  0  0  0  0  0  0  0  0  0  0
   -5.4298    2.8313    2.8537 H   0  0  0  0  0  0  0  0  0  0  0  0
   -6.6268    3.4617   -1.6771 H   0  0  0  0  0  0  0  0  0  0  0  0
   -5.4432    2.8263   -2.8556 H   0  0  0  0  0  0  0  0  0  0  0  0
    1.8185   -5.7801   -2.8566 H   0  0  0  0  0  0  0  0  0  0  0  0
    2.2076   -7.0707   -1.6843 H   0  0  0  0  0  0  0  0  0  0  0  0
    1.8077   -5.7543    2.8567 H   0  0  0  0  0  0  0  0  0  0  0  0
    2.2011   -7.0544    1.6960 H   0  0  0  0  0  0  0  0  0  0  0  0
    5.4254   -2.8281   -2.8558 H   0  0  0  0  0  0  0  0  0  0  0  0
    6.6125   -3.4705   -1.6849 H   0  0  0  0  0  0  0  0  0  0  0  0
    5.4489   -2.8305    2.8534 H   0  0  0  0  0  0  0  0  0  0  0  0
    6.6304   -3.4640    1.6718 H   0  0  0  0  0  0  0  0  0  0  0  0
    6.6086    3.9157    0.0054 H   0  0  0  0  0  0  0  0  0  0  0  0
    5.0080    5.7641    0.0170 H   0  0  0  0  0  0  0  0  0  0  0  0
    5.8879    1.8135    2.8542 H   0  0  0  0  0  0  0  0  0  0  0  0
    7.1610    2.2238    1.6699 H   0  0  0  0  0  0  0  0  0  0  0  0
    5.8860    1.8225   -2.8517 H   0  0  0  0  0  0  0  0  0  0  0  0
    7.1602    2.2276   -1.6659 H   0  0  0  0  0  0  0  0  0  0  0  0
   -3.8842    6.5592   -0.0109 H   0  0  0  0  0  0  0  0  0  0  0  0
   -5.7816    5.0188    0.0055 H   0  0  0  0  0  0  0  0  0  0  0  0
   -2.2093    7.0704    1.6835 H   0  0  0  0  0  0  0  0  0  0  0  0
   -1.8208    5.7798    2.8561 H   0  0  0  0  0  0  0  0  0  0  0  0
   -2.1998    7.0552   -1.6964 H   0  0  0  0  0  0  0  0  0  0  0  0
   -1.8051    5.7556   -2.8572 H   0  0  0  0  0  0  0  0  0  0  0  0
   -1.0940   -0.1730    3.5710 O   0  0  0  0  0  0  0  0  0  0  0  0
   -2.5960    2.0860    6.9300 C   0  0  0  0  0  0  0  0  0  0  0  0
   -3.6010    1.1850    6.8390 C   0  0  0  0  0  0  0  0  0  0  0  0
   -3.4280   -0.1770    6.4220 C   0  0  0  0  0  0  0  0  0  0  0  0
   -2.5500   -0.5850    5.4980 C   0  0  0  0  0  0  0  0  0  0  0  0
   -1.7920    0.4010    4.6560 C   0  0  0  0  0  0  0  0  0  0  0  0
   -0.8210    0.9810    5.6380 C   0  0  0  0  0  0  0  0  0  0  0  0
   -1.2250    1.8100    6.6080 C   0  0  0  0  0  0  0  0  0  0  0  0
   -2.7970    3.0370    7.4050 H   0  0  0  0  0  0  0  0  0  0  0  0
   -4.5690    1.4470    7.2450 H   0  0  0  0  0  0  0  0  0  0  0  0
   -4.0370   -0.9120    6.9320 H   0  0  0  0  0  0  0  0  0  0  0  0
   -2.3470   -1.6320    5.3280 H   0  0  0  0  0  0  0  0  0  0  0  0
   -2.4800    1.1880    4.2980 H   0  0  0  0  0  0  0  0  0  0  0  0
    0.2140    0.7100    5.5010 H   0  0  0  0  0  0  0  0  0  0  0  0
   -0.4830    2.2980    7.2260 H   0  0  0  0  0  0  0  0  0  0  0  0
   -1.3230    0.4360    2.3200 C   0  0  0  0  0  0  0  0  0  0  0  0
   -1.8390   -0.4860    1.2520 C   0  0  0  0  0  0  0  0  0  0  0  0
   -2.2950   -0.0110    0.0870 C   0  0  0  0  0  0  0  0  0  0  0  0
   -2.1740    1.3520   -0.3450 C   0  0  0  0  0  0  0  0  0  0  0  0
   -1.1200    2.1510   -0.0660 C   0  0  0  0  0  0  0  0  0  0  0  0
    0.0190    1.7530    0.7120 C   0  0  0  0  0  0  0  0  0  0  0  0
   -0.0220    0.9090    1.7490 C   0  0  0  0  0  0  0  0  0  0  0  0
   -2.0160    1.2910    2.4330 H   0  0  0  0  0  0  0  0  0  0  0  0
   -1.8290   -1.5430    1.4680 H   0  0  0  0  0  0  0  0  0  0  0  0
   -2.7610   -0.6930   -0.6120 H   0  0  0  0  0  0  0  0  0  0  0  0
   -2.9110    1.6970   -1.0590 H   0  0  0  0  0  0  0  0  0  0  0  0
   -1.0510    3.1080   -0.5660 H   0  0  0  0  0  0  0  0  0  0  0  0
    0.9720    2.1580    0.4010 H   0  0  0  0  0  0  0  0  0  0  0  0
    0.8690    0.5460    2.2370 H   0  0  0  0  0  0  0  0  0  0  0  0
  1  2  1  0
  2 97  1  1
  2  6  1  0
  3 98  1  6
  3  2  1  0
  3  8  1  0
  4  3  1  0
  5  1  1  0
  5  4  1  0
  6 66  1  0
  6  7  1  0
  7 10  2  0
  8 52  1  0
  8  7  1  0
  9  5  2  0
 11 12  1  0
 12 99  1  6
 12 13  1  0
 12 16  1  0
 13100  1  1
 13 18  1  0
 14 13  1  0
 15 14  1  0
 15 11  1  0
 16 52  1  0
 16 17  1  0
 17 20  2  0
 18 70  1  0
 18 17  1  0
 19 15  2  0
 21 22  1  0
 22101  1  6
 22 23  1  0
 22 26  1  0
 23102  1  1
 23 28  1  0
 24 23  1  0
 25 21  1  0
 25 24  1  0
 26 95  1  0
 26 27  1  0
 27 30  2  0
 28 53  1  0
 28 27  1  0
 29 25  2  0
 31 32  1  0
 32103  1  1
 32 36  1  0
 33 32  1  0
 33104  1  6
 33 38  1  0
 34 33  1  0
 35 34  1  0
 35 31  1  0
 36 83  1  0
 36 37  1  0
 37 40  2  0
 38 72  1  0
 38 37  1  0
 39 35  2  0
 41 42  1  0
 42105  1  1
 42 46  1  0
 43106  1  6
 43 42  1  0
 43 48  1  0
 44 43  1  0
 45 41  1  0
 45 44  1  0
 46 70  1  0
 46 47  1  0
 47 50  2  0
 48 72  1  0
 48 47  1  0
 49 45  2  0
 51107  1  0
 51 80  1  0
 51 24  1  0
 52109  1  0
 53111  1  0
 54114  1  0
 54 11  1  0
 54  4  1  0
 55 56  1  0
 56 57  1  0
 56115  1  1
 56 60  1  0
 57116  1  6
 57 62  1  0
 58 57  1  0
 59 55  1  0
 59 58  1  0
 60 66  1  0
 60 61  1  0
 61 64  2  0
 62 67  1  0
 62 61  1  0
 63 59  2  0
 65118  1  0
 65  1  1  0
 65 55  1  0
 66119  1  0
 67122  1  0
 68123  1  0
 68 92  1  0
 68 58  1  0
 69126  1  0
 69 14  1  0
 69 41  1  0
 70127  1  0
 71130  1  0
 71 34  1  0
 71 44  1  0
 72131  1  0
 73 83  1  0
 73 77  1  0
 74133  1  6
 74 75  1  0
 74 73  1  0
 75134  1  1
 75 76  1  0
 76 53  1  0
 76 77  1  0
 77 81  2  0
 78 74  1  0
 79 80  1  0
 79 78  1  0
 80 75  1  0
 82 79  2  0
 83135  1  0
 84138  1  0
 84 31  1  0
 84 78  1  0
 85 95  1  0
 85 89  1  0
 86139  1  6
 86 87  1  0
 86 85  1  0
 87140  1  1
 87 88  1  0
 88 67  1  0
 88 89  1  0
 89 93  2  0
 90 86  1  0
 91 92  1  0
 91 90  1  0
 92 87  1  0
 94 91  2  0
 95142  1  0
 96143  1  0
 96 90  1  0
 96 21  1  0
108 51  1  0
110 52  1  0
112 53  1  0
113 54  1  0
117 65  1  0
120 66  1  0
121 67  1  0
124 68  1  0
125 69  1  0
128 70  1  0
129 71  1  0
132 72  1  0
136 83  1  0
137 84  1  0
141 95  1  0
144 96  1  0
145150  1  0
146153  1  0
147146  2  0
147154  1  0
148147  1  0
148155  1  0
149148  2  0
150157  1  0
150149  1  0
150151  1  0
151152  2  0
152146  1  0
152159  1  0
156149  1  0
158151  1  0
160167  1  0
160145  1  0
161168  1  0
161160  1  0
162161  2  0
163164  2  0
163162  1  0
164165  1  0
165166  2  0
166173  1  0
166160  1  0
169162  1  0
170163  1  0
171164  1  0
172165  1  0
M  END
$$$$
optlog.xyz
     RDKit          3D

173198  0  0  1  0  0  0  0  0999 V2000
   -5.2520   -2.8849   -1.2197 N   0  0  0  0  0  0  0  0  0  0  0  0
   -5.5609   -3.5977   -0.0027 C   0  0  1  0  0  0  0  0  0  0  0  0
   -4.5429   -4.7721   -0.0049 C   0  0  1  0  0  0  0  0  0  0  0  0
   -3.7892   -4.5604   -1.2189 N   0  0  0  0  0  0  0  0  0  0  0  0
   -4.2397   -3.4773   -1.9399 C   0  0  0  0  0  0  0  0  0  0  0  0
   -5.2500   -2.8879    1.2165 N   0  0  0  0  0  0  0  0  0  0  0  0
   -4.2453   -3.4901    1.9396 C   0  0  0  0  0  0  0  0  0  0  0  0
   -3.7995   -4.5743    1.2172 N   0  0  0  0  0  0  0  0  0  0  0  0
   -3.8357   -3.1257   -3.0370 O   0  0  0  0  0  0  0  0  0  0  0  0
   -3.8438   -3.1443    3.0396 O   0  0  0  0  0  0  0  0  0  0  0  0
   -1.6327   -5.6618   -1.2192 N   0  0  0  0  0  0  0  0  0  0  0  0
   -1.3661   -6.3954   -0.0038 C   0  0  1  0  0  0  0  0  0  0  0  0
    0.1814   -6.5361    0.0006 C   0  0  1  0  0  0  0  0  0  0  0  0
    0.5814   -5.8762   -1.2195 N   0  0  0  0  0  0  0  0  0  0  0  0
   -0.4902   -5.4034   -1.9430 C   0  0  0  0  0  0  0  0  0  0  0  0
   -1.6411   -5.6751    1.2168 N   0  0  0  0  0  0  0  0  0  0  0  0
   -0.5017   -5.4039    1.9408 C   0  0  0  0  0  0  0  0  0  0  0  0
    0.5758   -5.8631    1.2164 N   0  0  0  0  0  0  0  0  0  0  0  0
   -0.4398   -4.8784   -3.0440 O   0  0  0  0  0  0  0  0  0  0  0  0
   -0.4572   -4.8790    3.0422 O   0  0  0  0  0  0  0  0  0  0  0  0
   -0.5748    5.8636   -1.2157 N   0  0  0  0  0  0  0  0  0  0  0  0
   -0.1813    6.5367    0.0003 C   0  0  2  0  0  0  0  0  0  0  0  0
    1.3662    6.3959    0.0060 C   0  0  2  0  0  0  0  0  0  0  0  0
    1.6421    5.6766   -1.2150 N   0  0  0  0  0  0  0  0  0  0  0  0
    0.5032    5.4046   -1.9393 C   0  0  0  0  0  0  0  0  0  0  0  0
   -0.5823    5.8768    1.2202 N   0  0  0  0  0  0  0  0  0  0  0  0
    0.4887    5.4031    1.9440 C   0  0  0  0  0  0  0  0  0  0  0  0
    1.6318    5.6612    1.2209 N   0  0  0  0  0  0  0  0  0  0  0  0
    0.4595    4.8794   -3.0405 O   0  0  0  0  0  0  0  0  0  0  0  0
    0.4374    4.8775    3.0448 O   0  0  0  0  0  0  0  0  0  0  0  0
    5.9872    0.5809   -1.2187 N   0  0  0  0  0  0  0  0  0  0  0  0
    6.6534    0.1784   -0.0020 C   0  0  2  0  0  0  0  0  0  0  0  0
    6.5031   -1.3690   -0.0038 C   0  0  2  0  0  0  0  0  0  0  0  0
    5.7771   -1.6328   -1.2239 N   0  0  0  0  0  0  0  0  0  0  0  0
    5.5094   -0.4890   -1.9410 C   0  0  0  0  0  0  0  0  0  0  0  0
    5.9914    0.5765    1.2181 N   0  0  0  0  0  0  0  0  0  0  0  0
    5.5131   -0.4950    1.9374 C   0  0  0  0  0  0  0  0  0  0  0  0
    5.7707   -1.6368    1.2122 N   0  0  0  0  0  0  0  0  0  0  0  0
    4.9749   -0.4358   -3.0375 O   0  0  0  0  0  0  0  0  0  0  0  0
    4.9849   -0.4453    3.0370 O   0  0  0  0  0  0  0  0  0  0  0  0
    2.9014   -5.1763   -1.2190 N   0  0  0  0  0  0  0  0  0  0  0  0
    3.5990   -5.5016    0.0026 C   0  0  1  0  0  0  0  0  0  0  0  0
    4.8059   -4.5222   -0.0005 C   0  0  1  0  0  0  0  0  0  0  0  0
    4.6164   -3.7594   -1.2129 N   0  0  0  0  0  0  0  0  0  0  0  0
    3.5245   -4.1818   -1.9381 C   0  0  0  0  0  0  0  0  0  0  0  0
    2.8945   -5.1617    1.2175 N   0  0  0  0  0  0  0  0  0  0  0  0
    3.5315   -4.1786    1.9414 C   0  0  0  0  0  0  0  0  0  0  0  0
    4.6338   -3.7759    1.2230 N   0  0  0  0  0  0  0  0  0  0  0  0
    3.1884   -3.7705   -3.0374 O   0  0  0  0  0  0  0  0  0  0  0  0
    3.1971   -3.7628    3.0395 O   0  0  0  0  0  0  0  0  0  0  0  0
    2.9587    5.5920   -1.7934 C   0  0  0  0  0  0  0  0  0  0  0  0
   -2.9574   -5.5895    1.7959 C   0  0  0  0  0  0  0  0  0  0  0  0
    2.9453    5.5701    1.8054 C   0  0  0  0  0  0  0  0  0  0  0  0
   -2.9467   -5.5721   -1.8031 C   0  0  0  0  0  0  0  0  0  0  0  0
   -5.9923   -0.5779   -1.2184 N   0  0  0  0  0  0  0  0  0  0  0  0
   -6.6538   -0.1784    0.0014 C   0  0  2  0  0  0  0  0  0  0  0  0
   -6.5030    1.3690    0.0015 C   0  0  2  0  0  0  0  0  0  0  0  0
   -5.7678    1.6349   -1.2134 N   0  0  0  0  0  0  0  0  0  0  0  0
   -5.5109    0.4923   -1.9373 C   0  0  0  0  0  0  0  0  0  0  0  0
   -5.9872   -0.5797    1.2184 N   0  0  0  0  0  0  0  0  0  0  0  0
   -5.5113    0.4910    1.9408 C   0  0  0  0  0  0  0  0  0  0  0  0
   -5.7794    1.6341    1.2227 N   0  0  0  0  0  0  0  0  0  0  0  0
   -4.9808    0.4411   -3.0359 O   0  0  0  0  0  0  0  0  0  0  0  0
   -4.9780    0.4389    3.0378 O   0  0  0  0  0  0  0  0  0  0  0  0
   -6.1251   -1.8924   -1.7917 C   0  0  0  0  0  0  0  0  0  0  0  0
   -6.1218   -1.8949    1.7904 C   0  0  0  0  0  0  0  0  0  0  0  0
   -5.6575    2.9501    1.7940 C   0  0  0  0  0  0  0  0  0  0  0  0
   -5.6645    2.9491   -1.7950 C   0  0  0  0  0  0  0  0  0  0  0  0
    1.8925   -6.0263   -1.7970 C   0  0  0  0  0  0  0  0  0  0  0  0
    1.8851   -6.0089    1.7994 C   0  0  0  0  0  0  0  0  0  0  0  0
    5.6547   -2.9482   -1.7966 C   0  0  0  0  0  0  0  0  0  0  0  0
    5.6684   -2.9516    1.7922 C   0  0  0  0  0  0  0  0  0  0  0  0
    5.2508    2.8834    1.2207 N   0  0  0  0  0  0  0  0  0  0  0  0
    5.5605    3.5975    0.0046 C   0  0  2  0  0  0  0  0  0  0  0  0
    4.5429    4.7721    0.0076 C   0  0  2  0  0  0  0  0  0  0  0  0
    3.7877    4.5588    1.2205 N   0  0  0  0  0  0  0  0  0  0  0  0
    4.2375    3.4748    1.9405 C   0  0  0  0  0  0  0  0  0  0  0  0
    5.2501    2.8890   -1.2154 N   0  0  0  0  0  0  0  0  0  0  0  0
    4.2464    3.4926   -1.9388 C   0  0  0  0  0  0  0  0  0  0  0  0
    3.8006    4.5762   -1.2156 N   0  0  0  0  0  0  0  0  0  0  0  0
    3.8323    3.1217    3.0366 O   0  0  0  0  0  0  0  0  0  0  0  0
    3.8457    3.1483   -3.0395 O   0  0  0  0  0  0  0  0  0  0  0  0
    6.1236    1.8906    1.7925 C   0  0  0  0  0  0  0  0  0  0  0  0
    6.1221    1.8964   -1.7898 C   0  0  0  0  0  0  0  0  0  0  0  0
   -2.9017    5.1756    1.2173 N   0  0  0  0  0  0  0  0  0  0  0  0
   -3.5988    5.5014   -0.0045 C   0  0  2  0  0  0  0  0  0  0  0  0
   -4.8055    4.5218   -0.0026 C   0  0  2  0  0  0  0  0  0  0  0  0
   -4.6181    3.7604    1.2110 N   0  0  0  0  0  0  0  0  0  0  0  0
   -3.5262    4.1819    1.9364 C   0  0  0  0  0  0  0  0  0  0  0  0
   -2.8937    5.1626   -1.2192 N   0  0  0  0  0  0  0  0  0  0  0  0
   -3.5291    4.1785   -1.9433 C   0  0  0  0  0  0  0  0  0  0  0  0
   -4.6310    3.7741   -1.2250 N   0  0  0  0  0  0  0  0  0  0  0  0
   -3.1911    3.7707    3.0360 O   0  0  0  0  0  0  0  0  0  0  0  0
   -3.1940    3.7631   -3.0414 O   0  0  0  0  0  0  0  0  0  0  0  0
   -1.8939    6.0261    1.7964 C   0  0  0  0  0  0  0  0  0  0  0  0
   -1.8836    6.0098   -1.7999 C   0  0  0  0  0  0  0  0  0  0  0  0
   -6.6089   -3.9161   -0.0025 H   0  0  0  0  0  0  0  0  0  0  0  0
   -5.0078   -5.7641   -0.0125 H   0  0  0  0  0  0  0  0  0  0  0  0
   -1.8991   -7.3524   -0.0108 H   0  0  0  0  0  0  0  0  0  0  0  0
    0.5332   -7.5736    0.0065 H   0  0  0  0  0  0  0  0  0  0  0  0
   -0.5332    7.5742   -0.0057 H   0  0  0  0  0  0  0  0  0  0  0  0
    1.8992    7.3529    0.0142 H   0  0  0  0  0  0  0  0  0  0  0  0
    7.6926    0.5250   -0.0030 H   0  0  0  0  0  0  0  0  0  0  0  0
    7.4560   -1.9093   -0.0019 H   0  0  0  0  0  0  0  0  0  0  0  0
    3.8841   -6.5594    0.0095 H   0  0  0  0  0  0  0  0  0  0  0  0
    5.7819   -5.0194   -0.0109 H   0  0  0  0  0  0  0  0  0  0  0  0
    3.4541    6.5641   -1.6823 H   0  0  0  0  0  0  0  0  0  0  0  0
    2.8408    5.3613   -2.8526 H   0  0  0  0  0  0  0  0  0  0  0  0
   -2.8388   -5.3574    2.8547 H   0  0  0  0  0  0  0  0  0  0  0  0
   -3.4530   -6.5617    1.6863 H   0  0  0  0  0  0  0  0  0  0  0  0
    2.8222    5.3289    2.8616 H   0  0  0  0  0  0  0  0  0  0  0  0
    3.4428    6.5427    1.7056 H   0  0  0  0  0  0  0  0  0  0  0  0
   -2.8243   -5.3321   -2.8596 H   0  0  0  0  0  0  0  0  0  0  0  0
   -3.4436   -6.5447   -1.7017 H   0  0  0  0  0  0  0  0  0  0  0  0
   -7.6930   -0.5246    0.0031 H   0  0  0  0  0  0  0  0  0  0  0  0
   -7.4557    1.9097   -0.0030 H   0  0  0  0  0  0  0  0  0  0  0  0
   -5.8900   -1.8161   -2.8536 H   0  0  0  0  0  0  0  0  0  0  0  0
   -7.1624   -2.2254   -1.6682 H   0  0  0  0  0  0  0  0  0  0  0  0
   -5.8854   -1.8203    2.8521 H   0  0  0  0  0  0  0  0  0  0  0  0
   -7.1599   -2.2263    1.6670 H   0  0  0  0  0  0  0  0  0  0  0  0
   -6.6150    3.4725    1.6802 H   0  0  0  0  0  0  0  0  0  0  0  0
   -5.4298    2.8313    2.8537 H   0  0  0  0  0  0  0  0  0  0  0  0
   -6.6268    3.4617   -1.6771 H   0  0  0  0  0  0  0  0  0  0  0  0
   -5.4432    2.8263   -2.8556 H   0  0  0  0  0  0  0  0  0  0  0  0
    1.8185   -5.7801   -2.8566 H   0  0  0  0  0  0  0  0  0  0  0  0
    2.2076   -7.0707   -1.6843 H   0  0  0  0  0  0  0  0  0  0  0  0
    1.8077   -5.7543    2.8567 H   0  0  0  0  0  0  0  0  0  0  0  0
    2.2011   -7.0544    1.6960 H   0  0  0  0  0  0  0  0  0  0  0  0
    5.4254   -2.8281   -2.8558 H   0  0  0  0  0  0  0  0  0  0  0  0
    6.6125   -3.4705   -1.6849 H   0  0  0  0  0  0  0  0  0  0  0  0
    5.4489   -2.8305    2.8534 H   0  0  0  0  0  0  0  0  0  0  0  0
    6.6304   -3.4640    1.6718 H   0  0  0  0  0  0  0  0  0  0  0  0
    6.6086    3.9157    0.0054 H   0  0  0  0  0  0  0  0  0  0  0  0
    5.0080    5.7641    0.0170 H   0  0  0  0  0  0  0  0  0  0  0  0
    5.8879    1.8135    2.8542 H   0  0  0  0  0  0  0  0  0  0  0  0
    7.1610    2.2238    1.6699 H   0  0  0  0  0  0  0  0  0  0  0  0
    5.8860    1.8225   -2.8517 H   0  0  0  0  0  0  0  0  0  0  0  0
    7.1602    2.2276   -1.6659 H   0  0  0  0  0  0  0  0  0  0  0  0
   -3.8842    6.5592   -0.0109 H   0  0  0  0  0  0  0  0  0  0  0  0
   -5.7816    5.0188    0.0055 H   0  0  0  0  0  0  0  0  0  0  0  0
   -2.2093    7.0704    1.6835 H   0  0  0  0  0  0  0  0  0  0  0  0
   -1.8208    5.7798    2.8561 H   0  0  0  0  0  0  0  0  0  0  0  0
   -2.1998    7.0552   -1.6964 H   0  0  0  0  0  0  0  0  0  0  0  0
   -1.8051    5.7556   -2.8572 H   0  0  0  0  0  0  0  0  0  0  0  0
   -0.6690   -0.5050    0.3310 O   0  0  0  0  0  0  0  0  0  0  0  0
   -0.6660    1.2020   -3.6350 C   0  0  0  0  0  0  0  0  0  0  0  0
    0.6440    1.3800   -3.3490 C   0  0  0  0  0  0  0  0  0  0  0  0
    1.4220    0.5030   -2.5230 C   0  0  0  0  0  0  0  0  0  0  0  0
    0.9510   -0.1570   -1.4570 C   0  0  0  0  0  0  0  0  0  0  0  0
   -0.4190    0.1200   -0.9040 C   0  0  0  0  0  0  0  0  0  0  0  0
   -1.3260   -0.4560   -1.9450 C   0  0  0  0  0  0  0  0  0  0  0  0
   -1.4670    0.1160   -3.1460 C   0  0  0  0  0  0  0  0  0  0  0  0
   -1.1200    1.8320   -4.3880 H   0  0  0  0  0  0  0  0  0  0  0  0
    1.1900    2.1460   -3.8850 H   0  0  0  0  0  0  0  0  0  0  0  0
    2.4510    0.3540   -2.8220 H   0  0  0  0  0  0  0  0  0  0  0  0
    1.5350   -0.9070   -0.9440 H   0  0  0  0  0  0  0  0  0  0  0  0
   -0.5780    1.2130   -0.8320 H   0  0  0  0  0  0  0  0  0  0  0  0
   -1.8700   -1.3430   -1.6560 H   0  0  0  0  0  0  0  0  0  0  0  0
   -2.2150   -0.2670   -3.8270 H   0  0  0  0  0  0  0  0  0  0  0  0
   -1.3300    0.3190    1.3010 C   0  0  0  0  0  0  0  0  0  0  0  0
   -0.4900    1.5100    1.6530 C   0  0  0  0  0  0  0  0  0  0  0  0
    0.7810    1.4030    2.0610 C   0  0  0  0  0  0  0  0  0  0  0  0
    1.4580    0.1820    2.3880 C   0  0  0  0  0  0  0  0  0  0  0  0
    0.8710   -0.9110    2.9200 C   0  0  0  0  0  0  0  0  0  0  0  0
   -0.5210   -1.0230    3.2400 C   0  0  0  0  0  0  0  0  0  0  0  0
   -1.5280   -0.4200    2.5940 C   0  0  0  0  0  0  0  0  0  0  0  0
   -2.2970    0.6440    0.8990 H   0  0  0  0  0  0  0  0  0  0  0  0
   -0.9400    2.4840    1.5210 H   0  0  0  0  0  0  0  0  0  0  0  0
    1.3650    2.3090    2.1710 H   0  0  0  0  0  0  0  0  0  0  0  0
    2.5370    0.2020    2.3100 H   0  0  0  0  0  0  0  0  0  0  0  0
    1.5020   -1.7270    3.2470 H   0  0  0  0  0  0  0  0  0  0  0  0
   -0.7580   -1.6450    4.0940 H   0  0  0  0  0  0  0  0  0  0  0  0
   -2.5380   -0.4910    2.9700 H   0  0  0  0  0  0  0  0  0  0  0  0
  1  2  1  0
  2 97  1  1
  2  6  1  0
  3 98  1  6
  3  2  1  0
  3  8  1  0
  4  3  1  0
  5  1  1  0
  5  4  1  0
  6 66  1  0
  6  7  1  0
  7 10  2  0
  8 52  1  0
  8  7  1  0
  9  5  2  0
 11 12  1  0
 12 99  1  6
 12 13  1  0
 12 16  1  0
 13100  1  1
 13 18  1  0
 14 13  1  0
 15 14  1  0
 15 11  1  0
 16 52  1  0
 16 17  1  0
 17 20  2  0
 18 70  1  0
 18 17  1  0
 19 15  2  0
 21 22  1  0
 22101  1  6
 22 23  1  0
 22 26  1  0
 23102  1  1
 23 28  1  0
 24 23  1  0
 25 21  1  0
 25 24  1  0
 26 95  1  0
 26 27  1  0
 27 30  2  0
 28 53  1  0
 28 27  1  0
 29 25  2  0
 31 32  1  0
 32103  1  1
 32 36  1  0
 33 32  1  0
 33104  1  6
 33 38  1  0
 34 33  1  0
 35 34  1  0
 35 31  1  0
 36 83  1  0
 36 37  1  0
 37 40  2  0
 38 72  1  0
 38 37  1  0
 39 35  2  0
 41 42  1  0
 42105  1  1
 42 46  1  0
 43106  1  6
 43 42  1  0
 43 48  1  0
 44 43  1  0
 45 41  1  0
 45 44  1  0
 46 70  1  0
 46 47  1  0
 47 50  2  0
 48 72  1  0
 48 47  1  0
 49 45  2  0
 51107  1  0
 51 80  1  0
 51 24  1  0
 52109  1  0
 53111  1  0
 54114  1  0
 54 11  1  0
 54  4  1  0
 55 56  1  0
 56 57  1  0
 56115  1  1
 56 60  1  0
 57116  1  6
 57 62  1  0
 58 57  1  0
 59 55  1  0
 59 58  1  0
 60 66  1  0
 60 61  1  0
 61 64  2  0
 62 67  1  0
 62 61  1  0
 63 59  2  0
 65118  1  0
 65  1  1  0
 65 55  1  0
 66119  1  0
 67122  1  0
 68123  1  0
 68 92  1  0
 68 58  1  0
 69126  1  0
 69 14  1  0
 69 41  1  0
 70127  1  0
 71130  1  0
 71 34  1  0
 71 44  1  0
 72131  1  0
 73 83  1  0
 73 77  1  0
 74133  1  6
 74 75  1  0
 74 73  1  0
 75134  1  1
 75 76  1  0
 76 53  1  0
 76 77  1  0
 77 81  2  0
 78 74  1  0
 79 80  1  0
 79 78  1  0
 80 75  1  0
 82 79  2  0
 83135  1  0
 84138  1  0
 84 31  1  0
 84 78  1  0
 85 95  1  0
 85 89  1  0
 86139  1  6
 86 87  1  0
 86 85  1  0
 87140  1  1
 87 88  1  0
 88 67  1  0
 88 89  1  0
 89 93  2  0
 90 86  1  0
 91 92  1  0
 91 90  1  0
 92 87  1  0
 94 91  2  0
 95142  1  0
 96143  1  0
 96 90  1  0
 96 21  1  0
108 51  1  0
110 52  1  0
112 53  1  0
113 54  1  0
117 65  1  0
120 66  1  0
121 67  1  0
124 68  1  0
125 69  1  0
128 70  1  0
129 71  1  0
132 72  1  0
136 83  1  0
137 84  1  0
141 95  1  0
144 96  1  0
145160  1  0
146147  2  0
146152  1  0
147148  1  0
148149  2  0
149156  1  0
149150  1  0
150157  1  0
150145  1  0
151158  1  0
151150  1  0
152151  2  0
153146  1  0
154147  1  0
155148  1  0
159152  1  0
160167  1  0
160161  1  0
160166  1  0
161162  2  0
162169  1  0
162163  1  0
163164  2  0
164165  1  0
164171  1  0
165172  1  0
166173  1  0
166165  2  0
168161  1  0
170163  1  0
M  END
$$$$
optlog.xyz
     RDKit          3D

173198  0  0  1  0  0  0  0  0999 V2000
   -5.2520   -2.8849   -1.2197 N   0  0  0  0  0  0  0  0  0  0  0  0
   -5.5609   -3.5977   -0.0027 C   0  0  1  0  0  0  0  0  0  0  0  0
   -4.5429   -4.7721   -0.0049 C   0  0  1  0  0  0  0  0  0  0  0  0
   -3.7892   -4.5604   -1.2189 N   0  0  0  0  0  0  0  0  0  0  0  0
   -4.2397   -3.4773   -1.9399 C   0  0  0  0  0  0  0  0  0  0  0  0
   -5.2500   -2.8879    1.2165 N   0  0  0  0  0  0  0  0  0  0  0  0
   -4.2453   -3.4901    1.9396 C   0  0  0  0  0  0  0  0  0  0  0  0
   -3.7995   -4.5743    1.2172 N   0  0  0  0  0  0  0  0  0  0  0  0
   -3.8357   -3.1257   -3.0370 O   0  0  0  0  0  0  0  0  0  0  0  0
   -3.8438   -3.1443    3.0396 O   0  0  0  0  0  0  0  0  0  0  0  0
   -1.6327   -5.6618   -1.2192 N   0  0  0  0  0  0  0  0  0  0  0  0
   -1.3661   -6.3954   -0.0038 C   0  0  1  0  0  0  0  0  0  0  0  0
    0.1814   -6.5361    0.0006 C   0  0  1  0  0  0  0  0  0  0  0  0
    0.5814   -5.8762   -1.2195 N   0  0  0  0  0  0  0  0  0  0  0  0
   -0.4902   -5.4034   -1.9430 C   0  0  0  0  0  0  0  0  0  0  0  0
   -1.6411   -5.6751    1.2168 N   0  0  0  0  0  0  0  0  0  0  0  0
   -0.5017   -5.4039    1.9408 C   0  0  0  0  0  0  0  0  0  0  0  0
    0.5758   -5.8631    1.2164 N   0  0  0  0  0  0  0  0  0  0  0  0
   -0.4398   -4.8784   -3.0440 O   0  0  0  0  0  0  0  0  0  0  0  0
   -0.4572   -4.8790    3.0422 O   0  0  0  0  0  0  0  0  0  0  0  0
   -0.5748    5.8636   -1.2157 N   0  0  0  0  0  0  0  0  0  0  0  0
   -0.1813    6.5367    0.0003 C   0  0  2  0  0  0  0  0  0  0  0  0
    1.3662    6.3959    0.0060 C   0  0  2  0  0  0  0  0  0  0  0  0
    1.6421    5.6766   -1.2150 N   0  0  0  0  0  0  0  0  0  0  0  0
    0.5032    5.4046   -1.9393 C   0  0  0  0  0  0  0  0  0  0  0  0
   -0.5823    5.8768    1.2202 N   0  0  0  0  0  0  0  0  0  0  0  0
    0.4887    5.4031    1.9440 C   0  0  0  0  0  0  0  0  0  0  0  0
    1.6318    5.6612    1.2209 N   0  0  0  0  0  0  0  0  0  0  0  0
    0.4595    4.8794   -3.0405 O   0  0  0  0  0  0  0  0  0  0  0  0
    0.4374    4.8775    3.0448 O   0  0  0  0  0  0  0  0  0  0  0  0
    5.9872    0.5809   -1.2187 N   0  0  0  0  0  0  0  0  0  0  0  0
    6.6534    0.1784   -0.0020 C   0  0  2  0  0  0  0  0  0  0  0  0
    6.5031   -1.3690   -0.0038 C   0  0  2  0  0  0  0  0  0  0  0  0
    5.7771   -1.6328   -1.2239 N   0  0  0  0  0  0  0  0  0  0  0  0
    5.5094   -0.4890   -1.9410 C   0  0  0  0  0  0  0  0  0  0  0  0
    5.9914    0.5765    1.2181 N   0  0  0  0  0  0  0  0  0  0  0  0
    5.5131   -0.4950    1.9374 C   0  0  0  0  0  0  0  0  0  0  0  0
    5.7707   -1.6368    1.2122 N   0  0  0  0  0  0  0  0  0  0  0  0
    4.9749   -0.4358   -3.0375 O   0  0  0  0  0  0  0  0  0  0  0  0
    4.9849   -0.4453    3.0370 O   0  0  0  0  0  0  0  0  0  0  0  0
    2.9014   -5.1763   -1.2190 N   0  0  0  0  0  0  0  0  0  0  0  0
    3.5990   -5.5016    0.0026 C   0  0  1  0  0  0  0  0  0  0  0  0
    4.8059   -4.5222   -0.0005 C   0  0  1  0  0  0  0  0  0  0  0  0
    4.6164   -3.7594   -1.2129 N   0  0  0  0  0  0  0  0  0  0  0  0
    3.5245   -4.1818   -1.9381 C   0  0  0  0  0  0  0  0  0  0  0  0
    2.8945   -5.1617    1.2175 N   0  0  0  0  0  0  0  0  0  0  0  0
    3.5315   -4.1786    1.9414 C   0  0  0  0  0  0  0  0  0  0  0  0
    4.6338   -3.7759    1.2230 N   0  0  0  0  0  0  0  0  0  0  0  0
    3.1884   -3.7705   -3.0374 O   0  0  0  0  0  0  0  0  0  0  0  0
    3.1971   -3.7628    3.0395 O   0  0  0  0  0  0  0  0  0  0  0  0
    2.9587    5.5920   -1.7934 C   0  0  0  0  0  0  0  0  0  0  0  0
   -2.9574   -5.5895    1.7959 C   0  0  0  0  0  0  0  0  0  0  0  0
    2.9453    5.5701    1.8054 C   0  0  0  0  0  0  0  0  0  0  0  0
   -2.9467   -5.5721   -1.8031 C   0  0  0  0  0  0  0  0  0  0  0  0
   -5.9923   -0.5779   -1.2184 N   0  0  0  0  0  0  0  0  0  0  0  0
   -6.6538   -0.1784    0.0014 C   0  0  2  0  0  0  0  0  0  0  0  0
   -6.5030    1.3690    0.0015 C   0  0  2  0  0  0  0  0  0  0  0  0
   -5.7678    1.6349   -1.2134 N   0  0  0  0  0  0  0  0  0  0  0  0
   -5.5109    0.4923   -1.9373 C   0  0  0  0  0  0  0  0  0  0  0  0
   -5.9872   -0.5797    1.2184 N   0  0  0  0  0  0  0  0  0  0  0  0
   -5.5113    0.4910    1.9408 C   0  0  0  0  0  0  0  0  0  0  0  0
   -5.7794    1.6341    1.2227 N   0  0  0  0  0  0  0  0  0  0  0  0
   -4.9808    0.4411   -3.0359 O   0  0  0  0  0  0  0  0  0  0  0  0
   -4.9780    0.4389    3.0378 O   0  0  0  0  0  0  0  0  0  0  0  0
   -6.1251   -1.8924   -1.7917 C   0  0  0  0  0  0  0  0  0  0  0  0
   -6.1218   -1.8949    1.7904 C   0  0  0  0  0  0  0  0  0  0  0  0
   -5.6575    2.9501    1.7940 C   0  0  0  0  0  0  0  0  0  0  0  0
   -5.6645    2.9491   -1.7950 C   0  0  0  0  0  0  0  0  0  0  0  0
    1.8925   -6.0263   -1.7970 C   0  0  0  0  0  0  0  0  0  0  0  0
    1.8851   -6.0089    1.7994 C   0  0  0  0  0  0  0  0  0  0  0  0
    5.6547   -2.9482   -1.7966 C   0  0  0  0  0  0  0  0  0  0  0  0
    5.6684   -2.9516    1.7922 C   0  0  0  0  0  0  0  0  0  0  0  0
    5.2508    2.8834    1.2207 N   0  0  0  0  0  0  0  0  0  0  0  0
    5.5605    3.5975    0.0046 C   0  0  2  0  0  0  0  0  0  0  0  0
    4.5429    4.7721    0.0076 C   0  0  2  0  0  0  0  0  0  0  0  0
    3.7877    4.5588    1.2205 N   0  0  0  0  0  0  0  0  0  0  0  0
    4.2375    3.4748    1.9405 C   0  0  0  0  0  0  0  0  0  0  0  0
    5.2501    2.8890   -1.2154 N   0  0  0  0  0  0  0  0  0  0  0  0
    4.2464    3.4926   -1.9388 C   0  0  0  0  0  0  0  0  0  0  0  0
    3.8006    4.5762   -1.2156 N   0  0  0  0  0  0  0  0  0  0  0  0
    3.8323    3.1217    3.0366 O   0  0  0  0  0  0  0  0  0  0  0  0
    3.8457    3.1483   -3.0395 O   0  0  0  0  0  0  0  0  0  0  0  0
    6.1236    1.8906    1.7925 C   0  0  0  0  0  0  0  0  0  0  0  0
    6.1221    1.8964   -1.7898 C   0  0  0  0  0  0  0  0  0  0  0  0
   -2.9017    5.1756    1.2173 N   0  0  0  0  0  0  0  0  0  0  0  0
   -3.5988    5.5014   -0.0045 C   0  0  2  0  0  0  0  0  0  0  0  0
   -4.8055    4.5218   -0.0026 C   0  0  2  0  0  0  0  0  0  0  0  0
   -4.6181    3.7604    1.2110 N   0  0  0  0  0  0  0  0  0  0  0  0
   -3.5262    4.1819    1.9364 C   0  0  0  0  0  0  0  0  0  0  0  0
   -2.8937    5.1626   -1.2192 N   0  0  0  0  0  0  0  0  0  0  0  0
   -3.5291    4.1785   -1.9433 C   0  0  0  0  0  0  0  0  0  0  0  0
   -4.6310    3.7741   -1.2250 N   0  0  0  0  0  0  0  0  0  0  0  0
   -3.1911    3.7707    3.0360 O   0  0  0  0  0  0  0  0  0  0  0  0
   -3.1940    3.7631   -3.0414 O   0  0  0  0  0  0  0  0  0  0  0  0
   -1.8939    6.0261    1.7964 C   0  0  0  0  0  0  0  0  0  0  0  0
   -1.8836    6.0098   -1.7999 C   0  0  0  0  0  0  0  0  0  0  0  0
   -6.6089   -3.9161   -0.0025 H   0  0  0  0  0  0  0  0  0  0  0  0
   -5.0078   -5.7641   -0.0125 H   0  0  0  0  0  0  0  0  0  0  0  0
   -1.8991   -7.3524   -0.0108 H   0  0  0  0  0  0  0  0  0  0  0  0
    0.5332   -7.5736    0.0065 H   0  0  0  0  0  0  0  0  0  0  0  0
   -0.5332    7.5742   -0.0057 H   0  0  0  0  0  0  0  0  0  0  0  0
    1.8992    7.3529    0.0142 H   0  0  0  0  0  0  0  0  0  0  0  0
    7.6926    0.5250   -0.0030 H   0  0  0  0  0  0  0  0  0  0  0  0
    7.4560   -1.9093   -0.0019 H   0  0  0  0  0  0  0  0  0  0  0  0
    3.8841   -6.5594    0.0095 H   0  0  0  0  0  0  0  0  0  0  0  0
    5.7819   -5.0194   -0.0109 H   0  0  0  0  0  0  0  0  0  0  0  0
    3.4541    6.5641   -1.6823 H   0  0  0  0  0  0  0  0  0  0  0  0
    2.8408    5.3613   -2.8526 H   0  0  0  0  0  0  0  0  0  0  0  0
   -2.8388   -5.3574    2.8547 H   0  0  0  0  0  0  0  0  0  0  0  0
   -3.4530   -6.5617    1.6863 H   0  0  0  0  0  0  0  0  0  0  0  0
    2.8222    5.3289    2.8616 H   0  0  0  0  0  0  0  0  0  0  0  0
    3.4428    6.5427    1.7056 H   0  0  0  0  0  0  0  0  0  0  0  0
   -2.8243   -5.3321   -2.8596 H   0  0  0  0  0  0  0  0  0  0  0  0
   -3.4436   -6.5447   -1.7017 H   0  0  0  0  0  0  0  0  0  0  0  0
   -7.6930   -0.5246    0.0031 H   0  0  0  0  0  0  0  0  0  0  0  0
   -7.4557    1.9097   -0.0030 H   0  0  0  0  0  0  0  0  0  0  0  0
   -5.8900   -1.8161   -2.8536 H   0  0  0  0  0  0  0  0  0  0  0  0
   -7.1624   -2.2254   -1.6682 H   0  0  0  0  0  0  0  0  0  0  0  0
   -5.8854   -1.8203    2.8521 H   0  0  0  0  0  0  0  0  0  0  0  0
   -7.1599   -2.2263    1.6670 H   0  0  0  0  0  0  0  0  0  0  0  0
   -6.6150    3.4725    1.6802 H   0  0  0  0  0  0  0  0  0  0  0  0
   -5.4298    2.8313    2.8537 H   0  0  0  0  0  0  0  0  0  0  0  0
   -6.6268    3.4617   -1.6771 H   0  0  0  0  0  0  0  0  0  0  0  0
   -5.4432    2.8263   -2.8556 H   0  0  0  0  0  0  0  0  0  0  0  0
    1.8185   -5.7801   -2.8566 H   0  0  0  0  0  0  0  0  0  0  0  0
    2.2076   -7.0707   -1.6843 H   0  0  0  0  0  0  0  0  0  0  0  0
    1.8077   -5.7543    2.8567 H   0  0  0  0  0  0  0  0  0  0  0  0
    2.2011   -7.0544    1.6960 H   0  0  0  0  0  0  0  0  0  0  0  0
    5.4254   -2.8281   -2.8558 H   0  0  0  0  0  0  0  0  0  0  0  0
    6.6125   -3.4705   -1.6849 H   0  0  0  0  0  0  0  0  0  0  0  0
    5.4489   -2.8305    2.8534 H   0  0  0  0  0  0  0  0  0  0  0  0
    6.6304   -3.4640    1.6718 H   0  0  0  0  0  0  0  0  0  0  0  0
    6.6086    3.9157    0.0054 H   0  0  0  0  0  0  0  0  0  0  0  0
    5.0080    5.7641    0.0170 H   0  0  0  0  0  0  0  0  0  0  0  0
    5.8879    1.8135    2.8542 H   0  0  0  0  0  0  0  0  0  0  0  0
    7.1610    2.2238    1.6699 H   0  0  0  0  0  0  0  0  0  0  0  0
    5.8860    1.8225   -2.8517 H   0  0  0  0  0  0  0  0  0  0  0  0
    7.1602    2.2276   -1.6659 H   0  0  0  0  0  0  0  0  0  0  0  0
   -3.8842    6.5592   -0.0109 H   0  0  0  0  0  0  0  0  0  0  0  0
   -5.7816    5.0188    0.0055 H   0  0  0  0  0  0  0  0  0  0  0  0
   -2.2093    7.0704    1.6835 H   0  0  0  0  0  0  0  0  0  0  0  0
   -1.8208    5.7798    2.8561 H   0  0  0  0  0  0  0  0  0  0  0  0
   -2.1998    7.0552   -1.6964 H   0  0  0  0  0  0  0  0  0  0  0  0
   -1.8051    5.7556   -2.8572 H   0  0  0  0  0  0  0  0  0  0  0  0
    0.2220   -1.0280    1.3580 O   0  0  0  0  0  0  0  0  0  0  0  0
   -0.9340    1.1060    3.1140 C   0  0  0  0  0  0  0  0  0  0  0  0
    0.3770    1.4340    3.1300 C   0  0  0  0  0  0  0  0  0  0  0  0
    1.4260    0.5710    3.5820 C   0  0  0  0  0  0  0  0  0  0  0  0
    1.4390   -0.7650    3.4750 C   0  0  0  0  0  0  0  0  0  0  0  0
    0.4240   -1.5270    2.6740 C   0  0  0  0  0  0  0  0  0  0  0  0
   -0.8480   -1.3390    3.4470 C   0  0  0  0  0  0  0  0  0  0  0  0
   -1.4640   -0.1540    3.5420 C   0  0  0  0  0  0  0  0  0  0  0  0
   -1.6580    1.8770    2.8840 H   0  0  0  0  0  0  0  0  0  0  0  0
    0.6560    2.4580    2.9160 H   0  0  0  0  0  0  0  0  0  0  0  0
    2.2630    1.0590    4.0660 H   0  0  0  0  0  0  0  0  0  0  0  0
    2.2200   -1.3430    3.9500 H   0  0  0  0  0  0  0  0  0  0  0  0
    0.6900   -2.5910    2.6310 H   0  0  0  0  0  0  0  0  0  0  0  0
   -1.2840   -2.2200    3.8950 H   0  0  0  0  0  0  0  0  0  0  0  0
   -2.4450   -0.1190    4.0000 H   0  0  0  0  0  0  0  0  0  0  0  0
   -0.4040   -1.8850    0.3910 C   0  0  0  0  0  0  0  0  0  0  0  0
    0.4790   -2.1800   -0.7910 C   0  0  0  0  0  0  0  0  0  0  0  0
    0.6430   -1.4550   -1.9040 C   0  0  0  0  0  0  0  0  0  0  0  0
   -0.0780   -0.2890   -2.3330 C   0  0  0  0  0  0  0  0  0  0  0  0
   -1.3080    0.0840   -1.9300 C   0  0  0  0  0  0  0  0  0  0  0  0
   -2.1410   -0.5960   -0.9770 C   0  0  0  0  0  0  0  0  0  0  0  0
   -1.7870   -1.4600   -0.0180 C   0  0  0  0  0  0  0  0  0  0  0  0
   -0.5010   -2.8100    0.9770 H   0  0  0  0  0  0  0  0  0  0  0  0
    1.0920   -3.0640   -0.6710 H   0  0  0  0  0  0  0  0  0  0  0  0
    1.4080   -1.7860   -2.5980 H   0  0  0  0  0  0  0  0  0  0  0  0
    0.3970    0.2860   -3.1170 H   0  0  0  0  0  0  0  0  0  0  0  0
   -1.7630    0.9400   -2.4110 H   0  0  0  0  0  0  0  0  0  0  0  0
   -3.1960   -0.3640   -1.0620 H   0  0  0  0  0  0  0  0  0  0  0  0
   -2.5750   -1.8940    0.5810 H   0  0  0  0  0  0  0  0  0  0  0  0
  1  2  1  0
  2 97  1  1
  2  6  1  0
  3 98  1  6
  3  2  1  0
  3  8  1  0
  4  3  1  0
  5  1  1  0
  5  4  1  0
  6 66  1  0
  6  7  1  0
  7 10  2  0
  8 52  1  0
  8  7  1  0
  9  5  2  0
 11 12  1  0
 12 99  1  6
 12 13  1  0
 12 16  1  0
 13100  1  1
 13 18  1  0
 14 13  1  0
 15 14  1  0
 15 11  1  0
 16 52  1  0
 16 17  1  0
 17 20  2  0
 18 70  1  0
 18 17  1  0
 19 15  2  0
 21 22  1  0
 22101  1  6
 22 23  1  0
 22 26  1  0
 23102  1  1
 23 28  1  0
 24 23  1  0
 25 21  1  0
 25 24  1  0
 26 95  1  0
 26 27  1  0
 27 30  2  0
 28 53  1  0
 28 27  1  0
 29 25  2  0
 31 32  1  0
 32103  1  1
 32 36  1  0
 33 32  1  0
 33104  1  6
 33 38  1  0
 34 33  1  0
 35 34  1  0
 35 31  1  0
 36 83  1  0
 36 37  1  0
 37 40  2  0
 38 72  1  0
 38 37  1  0
 39 35  2  0
 41 42  1  0
 42105  1  1
 42 46  1  0
 43106  1  6
 43 42  1  0
 43 48  1  0
 44 43  1  0
 45 41  1  0
 45 44  1  0
 46 70  1  0
 46 47  1  0
 47 50  2  0
 48 72  1  0
 48 47  1  0
 49 45  2  0
 51107  1  0
 51 80  1  0
 51 24  1  0
 52109  1  0
 53111  1  0
 54114  1  0
 54 11  1  0
 54  4  1  0
 55 56  1  0
 56 57  1  0
 56115  1  1
 56 60  1  0
 57116  1  6
 57 62  1  0
 58 57  1  0
 59 55  1  0
 59 58  1  0
 60 66  1  0
 60 61  1  0
 61 64  2  0
 62 67  1  0
 62 61  1  0
 63 59  2  0
 65118  1  0
 65  1  1  0
 65 55  1  0
 66119  1  0
 67122  1  0
 68123  1  0
 68 92  1  0
 68 58  1  0
 69126  1  0
 69 14  1  0
 69 41  1  0
 70127  1  0
 71130  1  0
 71 34  1  0
 71 44  1  0
 72131  1  0
 73 83  1  0
 73 77  1  0
 74133  1  6
 74 75  1  0
 74 73  1  0
 75134  1  1
 75 76  1  0
 76 53  1  0
 76 77  1  0
 77 81  2  0
 78 74  1  0
 79 80  1  0
 79 78  1  0
 80 75  1  0
 82 79  2  0
 83135  1  0
 84138  1  0
 84 31  1  0
 84 78  1  0
 85 95  1  0
 85 89  1  0
 86139  1  6
 86 87  1  0
 86 85  1  0
 87140  1  1
 87 88  1  0
 88 67  1  0
 88 89  1  0
 89 93  2  0
 90 86  1  0
 91 92  1  0
 91 90  1  0
 92 87  1  0
 94 91  2  0
 95142  1  0
 96143  1  0
 96 90  1  0
 96 21  1  0
108 51  1  0
110 52  1  0
112 53  1  0
113 54  1  0
117 65  1  0
120 66  1  0
121 67  1  0
124 68  1  0
125 69  1  0
128 70  1  0
129 71  1  0
132 72  1  0
136 83  1  0
137 84  1  0
141 95  1  0
144 96  1  0
145150  1  0
146147  2  0
146152  1  0
147148  1  0
148155  1  0
149148  2  0
149156  1  0
150157  1  0
150151  1  0
150149  1  0
151152  2  0
151158  1  0
152159  1  0
153146  1  0
154147  1  0
160167  1  0
160145  1  0
161168  1  0
161160  1  0
162161  2  0
163164  2  0
163162  1  0
164165  1  0
165166  2  0
166160  1  0
166173  1  0
169162  1  0
170163  1  0
171164  1  0
172165  1  0
M  END
$$$$
optlog.xyz
     RDKit          3D

173198  0  0  1  0  0  0  0  0999 V2000
   -5.2520   -2.8849   -1.2197 N   0  0  0  0  0  0  0  0  0  0  0  0
   -5.5609   -3.5977   -0.0027 C   0  0  1  0  0  0  0  0  0  0  0  0
   -4.5429   -4.7721   -0.0049 C   0  0  1  0  0  0  0  0  0  0  0  0
   -3.7892   -4.5604   -1.2189 N   0  0  0  0  0  0  0  0  0  0  0  0
   -4.2397   -3.4773   -1.9399 C   0  0  0  0  0  0  0  0  0  0  0  0
   -5.2500   -2.8879    1.2165 N   0  0  0  0  0  0  0  0  0  0  0  0
   -4.2453   -3.4901    1.9396 C   0  0  0  0  0  0  0  0  0  0  0  0
   -3.7995   -4.5743    1.2172 N   0  0  0  0  0  0  0  0  0  0  0  0
   -3.8357   -3.1257   -3.0370 O   0  0  0  0  0  0  0  0  0  0  0  0
   -3.8438   -3.1443    3.0396 O   0  0  0  0  0  0  0  0  0  0  0  0
   -1.6327   -5.6618   -1.2192 N   0  0  0  0  0  0  0  0  0  0  0  0
   -1.3661   -6.3954   -0.0038 C   0  0  1  0  0  0  0  0  0  0  0  0
    0.1814   -6.5361    0.0006 C   0  0  1  0  0  0  0  0  0  0  0  0
    0.5814   -5.8762   -1.2195 N   0  0  0  0  0  0  0  0  0  0  0  0
   -0.4902   -5.4034   -1.9430 C   0  0  0  0  0  0  0  0  0  0  0  0
   -1.6411   -5.6751    1.2168 N   0  0  0  0  0  0  0  0  0  0  0  0
   -0.5017   -5.4039    1.9408 C   0  0  0  0  0  0  0  0  0  0  0  0
    0.5758   -5.8631    1.2164 N   0  0  0  0  0  0  0  0  0  0  0  0
   -0.4398   -4.8784   -3.0440 O   0  0  0  0  0  0  0  0  0  0  0  0
   -0.4572   -4.8790    3.0422 O   0  0  0  0  0  0  0  0  0  0  0  0
   -0.5748    5.8636   -1.2157 N   0  0  0  0  0  0  0  0  0  0  0  0
   -0.1813    6.5367    0.0003 C   0  0  2  0  0  0  0  0  0  0  0  0
    1.3662    6.3959    0.0060 C   0  0  2  0  0  0  0  0  0  0  0  0
    1.6421    5.6766   -1.2150 N   0  0  0  0  0  0  0  0  0  0  0  0
    0.5032    5.4046   -1.9393 C   0  0  0  0  0  0  0  0  0  0  0  0
   -0.5823    5.8768    1.2202 N   0  0  0  0  0  0  0  0  0  0  0  0
    0.4887    5.4031    1.9440 C   0  0  0  0  0  0  0  0  0  0  0  0
    1.6318    5.6612    1.2209 N   0  0  0  0  0  0  0  0  0  0  0  0
    0.4595    4.8794   -3.0405 O   0  0  0  0  0  0  0  0  0  0  0  0
    0.4374    4.8775    3.0448 O   0  0  0  0  0  0  0  0  0  0  0  0
    5.9872    0.5809   -1.2187 N   0  0  0  0  0  0  0  0  0  0  0  0
    6.6534    0.1784   -0.0020 C   0  0  2  0  0  0  0  0  0  0  0  0
    6.5031   -1.3690   -0.0038 C   0  0  2  0  0  0  0  0  0  0  0  0
    5.7771   -1.6328   -1.2239 N   0  0  0  0  0  0  0  0  0  0  0  0
    5.5094   -0.4890   -1.9410 C   0  0  0  0  0  0  0  0  0  0  0  0
    5.9914    0.5765    1.2181 N   0  0  0  0  0  0  0  0  0  0  0  0
    5.5131   -0.4950    1.9374 C   0  0  0  0  0  0  0  0  0  0  0  0
    5.7707   -1.6368    1.2122 N   0  0  0  0  0  0  0  0  0  0  0  0
    4.9749   -0.4358   -3.0375 O   0  0  0  0  0  0  0  0  0  0  0  0
    4.9849   -0.4453    3.0370 O   0  0  0  0  0  0  0  0  0  0  0  0
    2.9014   -5.1763   -1.2190 N   0  0  0  0  0  0  0  0  0  0  0  0
    3.5990   -5.5016    0.0026 C   0  0  1  0  0  0  0  0  0  0  0  0
    4.8059   -4.5222   -0.0005 C   0  0  1  0  0  0  0  0  0  0  0  0
    4.6164   -3.7594   -1.2129 N   0  0  0  0  0  0  0  0  0  0  0  0
    3.5245   -4.1818   -1.9381 C   0  0  0  0  0  0  0  0  0  0  0  0
    2.8945   -5.1617    1.2175 N   0  0  0  0  0  0  0  0  0  0  0  0
    3.5315   -4.1786    1.9414 C   0  0  0  0  0  0  0  0  0  0  0  0
    4.6338   -3.7759    1.2230 N   0  0  0  0  0  0  0  0  0  0  0  0
    3.1884   -3.7705   -3.0374 O   0  0  0  0  0  0  0  0  0  0  0  0
    3.1971   -3.7628    3.0395 O   0  0  0  0  0  0  0  0  0  0  0  0
    2.9587    5.5920   -1.7934 C   0  0  0  0  0  0  0  0  0  0  0  0
   -2.9574   -5.5895    1.7959 C   0  0  0  0  0  0  0  0  0  0  0  0
    2.9453    5.5701    1.8054 C   0  0  0  0  0  0  0  0  0  0  0  0
   -2.9467   -5.5721   -1.8031 C   0  0  0  0  0  0  0  0  0  0  0  0
   -5.9923   -0.5779   -1.2184 N   0  0  0  0  0  0  0  0  0  0  0  0
   -6.6538   -0.1784    0.0014 C   0  0  2  0  0  0  0  0  0  0  0  0
   -6.5030    1.3690    0.0015 C   0  0  2  0  0  0  0  0  0  0  0  0
   -5.7678    1.6349   -1.2134 N   0  0  0  0  0  0  0  0  0  0  0  0
   -5.5109    0.4923   -1.9373 C   0  0  0  0  0  0  0  0  0  0  0  0
   -5.9872   -0.5797    1.2184 N   0  0  0  0  0  0  0  0  0  0  0  0
   -5.5113    0.4910    1.9408 C   0  0  0  0  0  0  0  0  0  0  0  0
   -5.7794    1.6341    1.2227 N   0  0  0  0  0  0  0  0  0  0  0  0
   -4.9808    0.4411   -3.0359 O   0  0  0  0  0  0  0  0  0  0  0  0
   -4.9780    0.4389    3.0378 O   0  0  0  0  0  0  0  0  0  0  0  0
   -6.1251   -1.8924   -1.7917 C   0  0  0  0  0  0  0  0  0  0  0  0
   -6.1218   -1.8949    1.7904 C   0  0  0  0  0  0  0  0  0  0  0  0
   -5.6575    2.9501    1.7940 C   0  0  0  0  0  0  0  0  0  0  0  0
   -5.6645    2.9491   -1.7950 C   0  0  0  0  0  0  0  0  0  0  0  0
    1.8925   -6.0263   -1.7970 C   0  0  0  0  0  0  0  0  0  0  0  0
    1.8851   -6.0089    1.7994 C   0  0  0  0  0  0  0  0  0  0  0  0
    5.6547   -2.9482   -1.7966 C   0  0  0  0  0  0  0  0  0  0  0  0
    5.6684   -2.9516    1.7922 C   0  0  0  0  0  0  0  0  0  0  0  0
    5.2508    2.8834    1.2207 N   0  0  0  0  0  0  0  0  0  0  0  0
    5.5605    3.5975    0.0046 C   0  0  2  0  0  0  0  0  0  0  0  0
    4.5429    4.7721    0.0076 C   0  0  2  0  0  0  0  0  0  0  0  0
    3.7877    4.5588    1.2205 N   0  0  0  0  0  0  0  0  0  0  0  0
    4.2375    3.4748    1.9405 C   0  0  0  0  0  0  0  0  0  0  0  0
    5.2501    2.8890   -1.2154 N   0  0  0  0  0  0  0  0  0  0  0  0
    4.2464    3.4926   -1.9388 C   0  0  0  0  0  0  0  0  0  0  0  0
    3.8006    4.5762   -1.2156 N   0  0  0  0  0  0  0  0  0  0  0  0
    3.8323    3.1217    3.0366 O   0  0  0  0  0  0  0  0  0  0  0  0
    3.8457    3.1483   -3.0395 O   0  0  0  0  0  0  0  0  0  0  0  0
    6.1236    1.8906    1.7925 C   0  0  0  0  0  0  0  0  0  0  0  0
    6.1221    1.8964   -1.7898 C   0  0  0  0  0  0  0  0  0  0  0  0
   -2.9017    5.1756    1.2173 N   0  0  0  0  0  0  0  0  0  0  0  0
   -3.5988    5.5014   -0.0045 C   0  0  2  0  0  0  0  0  0  0  0  0
   -4.8055    4.5218   -0.0026 C   0  0  2  0  0  0  0  0  0  0  0  0
   -4.6181    3.7604    1.2110 N   0  0  0  0  0  0  0  0  0  0  0  0
   -3.5262    4.1819    1.9364 C   0  0  0  0  0  0  0  0  0  0  0  0
   -2.8937    5.1626   -1.2192 N   0  0  0  0  0  0  0  0  0  0  0  0
   -3.5291    4.1785   -1.9433 C   0  0  0  0  0  0  0  0  0  0  0  0
   -4.6310    3.7741   -1.2250 N   0  0  0  0  0  0  0  0  0  0  0  0
   -3.1911    3.7707    3.0360 O   0  0  0  0  0  0  0  0  0  0  0  0
   -3.1940    3.7631   -3.0414 O   0  0  0  0  0  0  0  0  0  0  0  0
   -1.8939    6.0261    1.7964 C   0  0  0  0  0  0  0  0  0  0  0  0
   -1.8836    6.0098   -1.7999 C   0  0  0  0  0  0  0  0  0  0  0  0
   -6.6089   -3.9161   -0.0025 H   0  0  0  0  0  0  0  0  0  0  0  0
   -5.0078   -5.7641   -0.0125 H   0  0  0  0  0  0  0  0  0  0  0  0
   -1.8991   -7.3524   -0.0108 H   0  0  0  0  0  0  0  0  0  0  0  0
    0.5332   -7.5736    0.0065 H   0  0  0  0  0  0  0  0  0  0  0  0
   -0.5332    7.5742   -0.0057 H   0  0  0  0  0  0  0  0  0  0  0  0
    1.8992    7.3529    0.0142 H   0  0  0  0  0  0  0  0  0  0  0  0
    7.6926    0.5250   -0.0030 H   0  0  0  0  0  0  0  0  0  0  0  0
    7.4560   -1.9093   -0.0019 H   0  0  0  0  0  0  0  0  0  0  0  0
    3.8841   -6.5594    0.0095 H   0  0  0  0  0  0  0  0  0  0  0  0
    5.7819   -5.0194   -0.0109 H   0  0  0  0  0  0  0  0  0  0  0  0
    3.4541    6.5641   -1.6823 H   0  0  0  0  0  0  0  0  0  0  0  0
    2.8408    5.3613   -2.8526 H   0  0  0  0  0  0  0  0  0  0  0  0
   -2.8388   -5.3574    2.8547 H   0  0  0  0  0  0  0  0  0  0  0  0
   -3.4530   -6.5617    1.6863 H   0  0  0  0  0  0  0  0  0  0  0  0
    2.8222    5.3289    2.8616 H   0  0  0  0  0  0  0  0  0  0  0  0
    3.4428    6.5427    1.7056 H   0  0  0  0  0  0  0  0  0  0  0  0
   -2.8243   -5.3321   -2.8596 H   0  0  0  0  0  0  0  0  0  0  0  0
   -3.4436   -6.5447   -1.7017 H   0  0  0  0  0  0  0  0  0  0  0  0
   -7.6930   -0.5246    0.0031 H   0  0  0  0  0  0  0  0  0  0  0  0
   -7.4557    1.9097   -0.0030 H   0  0  0  0  0  0  0  0  0  0  0  0
   -5.8900   -1.8161   -2.8536 H   0  0  0  0  0  0  0  0  0  0  0  0
   -7.1624   -2.2254   -1.6682 H   0  0  0  0  0  0  0  0  0  0  0  0
   -5.8854   -1.8203    2.8521 H   0  0  0  0  0  0  0  0  0  0  0  0
   -7.1599   -2.2263    1.6670 H   0  0  0  0  0  0  0  0  0  0  0  0
   -6.6150    3.4725    1.6802 H   0  0  0  0  0  0  0  0  0  0  0  0
   -5.4298    2.8313    2.8537 H   0  0  0  0  0  0  0  0  0  0  0  0
   -6.6268    3.4617   -1.6771 H   0  0  0  0  0  0  0  0  0  0  0  0
   -5.4432    2.8263   -2.8556 H   0  0  0  0  0  0  0  0  0  0  0  0
    1.8185   -5.7801   -2.8566 H   0  0  0  0  0  0  0  0  0  0  0  0
    2.2076   -7.0707   -1.6843 H   0  0  0  0  0  0  0  0  0  0  0  0
    1.8077   -5.7543    2.8567 H   0  0  0  0  0  0  0  0  0  0  0  0
    2.2011   -7.0544    1.6960 H   0  0  0  0  0  0  0  0  0  0  0  0
    5.4254   -2.8281   -2.8558 H   0  0  0  0  0  0  0  0  0  0  0  0
    6.6125   -3.4705   -1.6849 H   0  0  0  0  0  0  0  0  0  0  0  0
    5.4489   -2.8305    2.8534 H   0  0  0  0  0  0  0  0  0  0  0  0
    6.6304   -3.4640    1.6718 H   0  0  0  0  0  0  0  0  0  0  0  0
    6.6086    3.9157    0.0054 H   0  0  0  0  0  0  0  0  0  0  0  0
    5.0080    5.7641    0.0170 H   0  0  0  0  0  0  0  0  0  0  0  0
    5.8879    1.8135    2.8542 H   0  0  0  0  0  0  0  0  0  0  0  0
    7.1610    2.2238    1.6699 H   0  0  0  0  0  0  0  0  0  0  0  0
    5.8860    1.8225   -2.8517 H   0  0  0  0  0  0  0  0  0  0  0  0
    7.1602    2.2276   -1.6659 H   0  0  0  0  0  0  0  0  0  0  0  0
   -3.8842    6.5592   -0.0109 H   0  0  0  0  0  0  0  0  0  0  0  0
   -5.7816    5.0188    0.0055 H   0  0  0  0  0  0  0  0  0  0  0  0
   -2.2093    7.0704    1.6835 H   0  0  0  0  0  0  0  0  0  0  0  0
   -1.8208    5.7798    2.8561 H   0  0  0  0  0  0  0  0  0  0  0  0
   -2.1998    7.0552   -1.6964 H   0  0  0  0  0  0  0  0  0  0  0  0
   -1.8051    5.7556   -2.8572 H   0  0  0  0  0  0  0  0  0  0  0  0
    0.4950   -0.7430    0.3750 O   0  0  0  0  0  0  0  0  0  0  0  0
   -0.3800    1.4910    2.3500 C   0  0  0  0  0  0  0  0  0  0  0  0
    0.7440    0.9780    2.8930 C   0  0  0  0  0  0  0  0  0  0  0  0
    0.9270   -0.3960    3.2540 C   0  0  0  0  0  0  0  0  0  0  0  0
    0.3790   -1.4530    2.6410 C   0  0  0  0  0  0  0  0  0  0  0  0
   -0.3610   -1.3430    1.3430 C   0  0  0  0  0  0  0  0  0  0  0  0
   -1.5940   -0.5490    1.6630 C   0  0  0  0  0  0  0  0  0  0  0  0
   -1.5600    0.7360    2.0420 C   0  0  0  0  0  0  0  0  0  0  0  0
   -0.4600    2.5660    2.2440 H   0  0  0  0  0  0  0  0  0  0  0  0
    1.5250    1.6610    3.2010 H   0  0  0  0  0  0  0  0  0  0  0  0
    1.5570   -0.5740    4.1170 H   0  0  0  0  0  0  0  0  0  0  0  0
    0.4990   -2.4440    3.0530 H   0  0  0  0  0  0  0  0  0  0  0  0
   -0.6490   -2.3440    0.9800 H   0  0  0  0  0  0  0  0  0  0  0  0
   -2.5430   -1.0520    1.5390 H   0  0  0  0  0  0  0  0  0  0  0  0
   -2.4970    1.2710    2.1340 H   0  0  0  0  0  0  0  0  0  0  0  0
   -0.1260   -0.4470   -0.8540 C   0  0  0  0  0  0  0  0  0  0  0  0
    0.4640   -1.2970   -1.9370 C   0  0  0  0  0  0  0  0  0  0  0  0
   -0.1260   -1.4090   -3.1340 C   0  0  0  0  0  0  0  0  0  0  0  0
   -1.2420   -0.6210   -3.5730 C   0  0  0  0  0  0  0  0  0  0  0  0
   -1.4470    0.6720   -3.2340 C   0  0  0  0  0  0  0  0  0  0  0  0
   -0.5660    1.4370   -2.3990 C   0  0  0  0  0  0  0  0  0  0  0  0
    0.1250    0.9440   -1.3650 C   0  0  0  0  0  0  0  0  0  0  0  0
   -1.2160   -0.6260   -0.7900 H   0  0  0  0  0  0  0  0  0  0  0  0
    1.3720   -1.8220   -1.6840 H   0  0  0  0  0  0  0  0  0  0  0  0
    0.2670   -2.1200   -3.8480 H   0  0  0  0  0  0  0  0  0  0  0  0
   -1.8730   -1.0630   -4.3330 H   0  0  0  0  0  0  0  0  0  0  0  0
   -2.2350    1.2190   -3.7350 H   0  0  0  0  0  0  0  0  0  0  0  0
   -0.4400    2.4790   -2.6680 H   0  0  0  0  0  0  0  0  0  0  0  0
    0.8840    1.5170   -0.8540 H   0  0  0  0  0  0  0  0  0  0  0  0
  1  2  1  0
  2 97  1  1
  2  6  1  0
  3 98  1  6
  3  2  1  0
  3  8  1  0
  4  3  1  0
  5  1  1  0
  5  4  1  0
  6 66  1  0
  6  7  1  0
  7 10  2  0
  8 52  1  0
  8  7  1  0
  9  5  2  0
 11 12  1  0
 12 99  1  6
 12 13  1  0
 12 16  1  0
 13100  1  1
 13 18  1  0
 14 13  1  0
 15 14  1  0
 15 11  1  0
 16 52  1  0
 16 17  1  0
 17 20  2  0
 18 70  1  0
 18 17  1  0
 19 15  2  0
 21 22  1  0
 22101  1  6
 22 23  1  0
 22 26  1  0
 23102  1  1
 23 28  1  0
 24 23  1  0
 25 21  1  0
 25 24  1  0
 26 95  1  0
 26 27  1  0
 27 30  2  0
 28 53  1  0
 28 27  1  0
 29 25  2  0
 31 32  1  0
 32103  1  1
 32 36  1  0
 33 32  1  0
 33104  1  6
 33 38  1  0
 34 33  1  0
 35 34  1  0
 35 31  1  0
 36 83  1  0
 36 37  1  0
 37 40  2  0
 38 72  1  0
 38 37  1  0
 39 35  2  0
 41 42  1  0
 42105  1  1
 42 46  1  0
 43106  1  6
 43 42  1  0
 43 48  1  0
 44 43  1  0
 45 41  1  0
 45 44  1  0
 46 70  1  0
 46 47  1  0
 47 50  2  0
 48 72  1  0
 48 47  1  0
 49 45  2  0
 51107  1  0
 51 80  1  0
 51 24  1  0
 52109  1  0
 53111  1  0
 54114  1  0
 54 11  1  0
 54  4  1  0
 55 56  1  0
 56 57  1  0
 56115  1  1
 56 60  1  0
 57116  1  6
 57 62  1  0
 58 57  1  0
 59 55  1  0
 59 58  1  0
 60 66  1  0
 60 61  1  0
 61 64  2  0
 62 67  1  0
 62 61  1  0
 63 59  2  0
 65118  1  0
 65  1  1  0
 65 55  1  0
 66119  1  0
 67122  1  0
 68123  1  0
 68 92  1  0
 68 58  1  0
 69126  1  0
 69 14  1  0
 69 41  1  0
 70127  1  0
 71130  1  0
 71 34  1  0
 71 44  1  0
 72131  1  0
 73 83  1  0
 73 77  1  0
 74133  1  6
 74 75  1  0
 74 73  1  0
 75134  1  1
 75 76  1  0
 76 53  1  0
 76 77  1  0
 77 81  2  0
 78 74  1  0
 79 80  1  0
 79 78  1  0
 80 75  1  0
 82 79  2  0
 83135  1  0
 84138  1  0
 84 31  1  0
 84 78  1  0
 85 95  1  0
 85 89  1  0
 86139  1  6
 86 87  1  0
 86 85  1  0
 87140  1  1
 87 88  1  0
 88 67  1  0
 88 89  1  0
 89 93  2  0
 90 86  1  0
 91 92  1  0
 91 90  1  0
 92 87  1  0
 94 91  2  0
 95142  1  0
 96143  1  0
 96 90  1  0
 96 21  1  0
108 51  1  0
110 52  1  0
112 53  1  0
113 54  1  0
117 65  1  0
120 66  1  0
121 67  1  0
124 68  1  0
125 69  1  0
128 70  1  0
129 71  1  0
132 72  1  0
136 83  1  0
137 84  1  0
141 95  1  0
144 96  1  0
145150  1  0
146147  2  0
147154  1  0
147148  1  0
148155  1  0
149156  1  0
149148  2  0
150157  1  0
150151  1  0
150149  1  0
151152  2  0
152159  1  0
152146  1  0
153146  1  0
158151  1  0
160167  1  0
160145  1  0
161168  1  0
161160  1  0
162161  2  0
163164  2  0
163162  1  0
164165  1  0
165166  2  0
166173  1  0
166160  1  0
169162  1  0
170163  1  0
171164  1  0
172165  1  0
M  END
$$$$
optlog.xyz
     RDKit          3D

173198  0  0  1  0  0  0  0  0999 V2000
   -5.2520   -2.8849   -1.2197 N   0  0  0  0  0  0  0  0  0  0  0  0
   -5.5609   -3.5977   -0.0027 C   0  0  1  0  0  0  0  0  0  0  0  0
   -4.5429   -4.7721   -0.0049 C   0  0  1  0  0  0  0  0  0  0  0  0
   -3.7892   -4.5604   -1.2189 N   0  0  0  0  0  0  0  0  0  0  0  0
   -4.2397   -3.4773   -1.9399 C   0  0  0  0  0  0  0  0  0  0  0  0
   -5.2500   -2.8879    1.2165 N   0  0  0  0  0  0  0  0  0  0  0  0
   -4.2453   -3.4901    1.9396 C   0  0  0  0  0  0  0  0  0  0  0  0
   -3.7995   -4.5743    1.2172 N   0  0  0  0  0  0  0  0  0  0  0  0
   -3.8357   -3.1257   -3.0370 O   0  0  0  0  0  0  0  0  0  0  0  0
   -3.8438   -3.1443    3.0396 O   0  0  0  0  0  0  0  0  0  0  0  0
   -1.6327   -5.6618   -1.2192 N   0  0  0  0  0  0  0  0  0  0  0  0
   -1.3661   -6.3954   -0.0038 C   0  0  1  0  0  0  0  0  0  0  0  0
    0.1814   -6.5361    0.0006 C   0  0  1  0  0  0  0  0  0  0  0  0
    0.5814   -5.8762   -1.2195 N   0  0  0  0  0  0  0  0  0  0  0  0
   -0.4902   -5.4034   -1.9430 C   0  0  0  0  0  0  0  0  0  0  0  0
   -1.6411   -5.6751    1.2168 N   0  0  0  0  0  0  0  0  0  0  0  0
   -0.5017   -5.4039    1.9408 C   0  0  0  0  0  0  0  0  0  0  0  0
    0.5758   -5.8631    1.2164 N   0  0  0  0  0  0  0  0  0  0  0  0
   -0.4398   -4.8784   -3.0440 O   0  0  0  0  0  0  0  0  0  0  0  0
   -0.4572   -4.8790    3.0422 O   0  0  0  0  0  0  0  0  0  0  0  0
   -0.5748    5.8636   -1.2157 N   0  0  0  0  0  0  0  0  0  0  0  0
   -0.1813    6.5367    0.0003 C   0  0  2  0  0  0  0  0  0  0  0  0
    1.3662    6.3959    0.0060 C   0  0  2  0  0  0  0  0  0  0  0  0
    1.6421    5.6766   -1.2150 N   0  0  0  0  0  0  0  0  0  0  0  0
    0.5032    5.4046   -1.9393 C   0  0  0  0  0  0  0  0  0  0  0  0
   -0.5823    5.8768    1.2202 N   0  0  0  0  0  0  0  0  0  0  0  0
    0.4887    5.4031    1.9440 C   0  0  0  0  0  0  0  0  0  0  0  0
    1.6318    5.6612    1.2209 N   0  0  0  0  0  0  0  0  0  0  0  0
    0.4595    4.8794   -3.0405 O   0  0  0  0  0  0  0  0  0  0  0  0
    0.4374    4.8775    3.0448 O   0  0  0  0  0  0  0  0  0  0  0  0
    5.9872    0.5809   -1.2187 N   0  0  0  0  0  0  0  0  0  0  0  0
    6.6534    0.1784   -0.0020 C   0  0  2  0  0  0  0  0  0  0  0  0
    6.5031   -1.3690   -0.0038 C   0  0  2  0  0  0  0  0  0  0  0  0
    5.7771   -1.6328   -1.2239 N   0  0  0  0  0  0  0  0  0  0  0  0
    5.5094   -0.4890   -1.9410 C   0  0  0  0  0  0  0  0  0  0  0  0
    5.9914    0.5765    1.2181 N   0  0  0  0  0  0  0  0  0  0  0  0
    5.5131   -0.4950    1.9374 C   0  0  0  0  0  0  0  0  0  0  0  0
    5.7707   -1.6368    1.2122 N   0  0  0  0  0  0  0  0  0  0  0  0
    4.9749   -0.4358   -3.0375 O   0  0  0  0  0  0  0  0  0  0  0  0
    4.9849   -0.4453    3.0370 O   0  0  0  0  0  0  0  0  0  0  0  0
    2.9014   -5.1763   -1.2190 N   0  0  0  0  0  0  0  0  0  0  0  0
    3.5990   -5.5016    0.0026 C   0  0  1  0  0  0  0  0  0  0  0  0
    4.8059   -4.5222   -0.0005 C   0  0  1  0  0  0  0  0  0  0  0  0
    4.6164   -3.7594   -1.2129 N   0  0  0  0  0  0  0  0  0  0  0  0
    3.5245   -4.1818   -1.9381 C   0  0  0  0  0  0  0  0  0  0  0  0
    2.8945   -5.1617    1.2175 N   0  0  0  0  0  0  0  0  0  0  0  0
    3.5315   -4.1786    1.9414 C   0  0  0  0  0  0  0  0  0  0  0  0
    4.6338   -3.7759    1.2230 N   0  0  0  0  0  0  0  0  0  0  0  0
    3.1884   -3.7705   -3.0374 O   0  0  0  0  0  0  0  0  0  0  0  0
    3.1971   -3.7628    3.0395 O   0  0  0  0  0  0  0  0  0  0  0  0
    2.9587    5.5920   -1.7934 C   0  0  0  0  0  0  0  0  0  0  0  0
   -2.9574   -5.5895    1.7959 C   0  0  0  0  0  0  0  0  0  0  0  0
    2.9453    5.5701    1.8054 C   0  0  0  0  0  0  0  0  0  0  0  0
   -2.9467   -5.5721   -1.8031 C   0  0  0  0  0  0  0  0  0  0  0  0
   -5.9923   -0.5779   -1.2184 N   0  0  0  0  0  0  0  0  0  0  0  0
   -6.6538   -0.1784    0.0014 C   0  0  2  0  0  0  0  0  0  0  0  0
   -6.5030    1.3690    0.0015 C   0  0  2  0  0  0  0  0  0  0  0  0
   -5.7678    1.6349   -1.2134 N   0  0  0  0  0  0  0  0  0  0  0  0
   -5.5109    0.4923   -1.9373 C   0  0  0  0  0  0  0  0  0  0  0  0
   -5.9872   -0.5797    1.2184 N   0  0  0  0  0  0  0  0  0  0  0  0
   -5.5113    0.4910    1.9408 C   0  0  0  0  0  0  0  0  0  0  0  0
   -5.7794    1.6341    1.2227 N   0  0  0  0  0  0  0  0  0  0  0  0
   -4.9808    0.4411   -3.0359 O   0  0  0  0  0  0  0  0  0  0  0  0
   -4.9780    0.4389    3.0378 O   0  0  0  0  0  0  0  0  0  0  0  0
   -6.1251   -1.8924   -1.7917 C   0  0  0  0  0  0  0  0  0  0  0  0
   -6.1218   -1.8949    1.7904 C   0  0  0  0  0  0  0  0  0  0  0  0
   -5.6575    2.9501    1.7940 C   0  0  0  0  0  0  0  0  0  0  0  0
   -5.6645    2.9491   -1.7950 C   0  0  0  0  0  0  0  0  0  0  0  0
    1.8925   -6.0263   -1.7970 C   0  0  0  0  0  0  0  0  0  0  0  0
    1.8851   -6.0089    1.7994 C   0  0  0  0  0  0  0  0  0  0  0  0
    5.6547   -2.9482   -1.7966 C   0  0  0  0  0  0  0  0  0  0  0  0
    5.6684   -2.9516    1.7922 C   0  0  0  0  0  0  0  0  0  0  0  0
    5.2508    2.8834    1.2207 N   0  0  0  0  0  0  0  0  0  0  0  0
    5.5605    3.5975    0.0046 C   0  0  2  0  0  0  0  0  0  0  0  0
    4.5429    4.7721    0.0076 C   0  0  2  0  0  0  0  0  0  0  0  0
    3.7877    4.5588    1.2205 N   0  0  0  0  0  0  0  0  0  0  0  0
    4.2375    3.4748    1.9405 C   0  0  0  0  0  0  0  0  0  0  0  0
    5.2501    2.8890   -1.2154 N   0  0  0  0  0  0  0  0  0  0  0  0
    4.2464    3.4926   -1.9388 C   0  0  0  0  0  0  0  0  0  0  0  0
    3.8006    4.5762   -1.2156 N   0  0  0  0  0  0  0  0  0  0  0  0
    3.8323    3.1217    3.0366 O   0  0  0  0  0  0  0  0  0  0  0  0
    3.8457    3.1483   -3.0395 O   0  0  0  0  0  0  0  0  0  0  0  0
    6.1236    1.8906    1.7925 C   0  0  0  0  0  0  0  0  0  0  0  0
    6.1221    1.8964   -1.7898 C   0  0  0  0  0  0  0  0  0  0  0  0
   -2.9017    5.1756    1.2173 N   0  0  0  0  0  0  0  0  0  0  0  0
   -3.5988    5.5014   -0.0045 C   0  0  2  0  0  0  0  0  0  0  0  0
   -4.8055    4.5218   -0.0026 C   0  0  2  0  0  0  0  0  0  0  0  0
   -4.6181    3.7604    1.2110 N   0  0  0  0  0  0  0  0  0  0  0  0
   -3.5262    4.1819    1.9364 C   0  0  0  0  0  0  0  0  0  0  0  0
   -2.8937    5.1626   -1.2192 N   0  0  0  0  0  0  0  0  0  0  0  0
   -3.5291    4.1785   -1.9433 C   0  0  0  0  0  0  0  0  0  0  0  0
   -4.6310    3.7741   -1.2250 N   0  0  0  0  0  0  0  0  0  0  0  0
   -3.1911    3.7707    3.0360 O   0  0  0  0  0  0  0  0  0  0  0  0
   -3.1940    3.7631   -3.0414 O   0  0  0  0  0  0  0  0  0  0  0  0
   -1.8939    6.0261    1.7964 C   0  0  0  0  0  0  0  0  0  0  0  0
   -1.8836    6.0098   -1.7999 C   0  0  0  0  0  0  0  0  0  0  0  0
   -6.6089   -3.9161   -0.0025 H   0  0  0  0  0  0  0  0  0  0  0  0
   -5.0078   -5.7641   -0.0125 H   0  0  0  0  0  0  0  0  0  0  0  0
   -1.8991   -7.3524   -0.0108 H   0  0  0  0  0  0  0  0  0  0  0  0
    0.5332   -7.5736    0.0065 H   0  0  0  0  0  0  0  0  0  0  0  0
   -0.5332    7.5742   -0.0057 H   0  0  0  0  0  0  0  0  0  0  0  0
    1.8992    7.3529    0.0142 H   0  0  0  0  0  0  0  0  0  0  0  0
    7.6926    0.5250   -0.0030 H   0  0  0  0  0  0  0  0  0  0  0  0
    7.4560   -1.9093   -0.0019 H   0  0  0  0  0  0  0  0  0  0  0  0
    3.8841   -6.5594    0.0095 H   0  0  0  0  0  0  0  0  0  0  0  0
    5.7819   -5.0194   -0.0109 H   0  0  0  0  0  0  0  0  0  0  0  0
    3.4541    6.5641   -1.6823 H   0  0  0  0  0  0  0  0  0  0  0  0
    2.8408    5.3613   -2.8526 H   0  0  0  0  0  0  0  0  0  0  0  0
   -2.8388   -5.3574    2.8547 H   0  0  0  0  0  0  0  0  0  0  0  0
   -3.4530   -6.5617    1.6863 H   0  0  0  0  0  0  0  0  0  0  0  0
    2.8222    5.3289    2.8616 H   0  0  0  0  0  0  0  0  0  0  0  0
    3.4428    6.5427    1.7056 H   0  0  0  0  0  0  0  0  0  0  0  0
   -2.8243   -5.3321   -2.8596 H   0  0  0  0  0  0  0  0  0  0  0  0
   -3.4436   -6.5447   -1.7017 H   0  0  0  0  0  0  0  0  0  0  0  0
   -7.6930   -0.5246    0.0031 H   0  0  0  0  0  0  0  0  0  0  0  0
   -7.4557    1.9097   -0.0030 H   0  0  0  0  0  0  0  0  0  0  0  0
   -5.8900   -1.8161   -2.8536 H   0  0  0  0  0  0  0  0  0  0  0  0
   -7.1624   -2.2254   -1.6682 H   0  0  0  0  0  0  0  0  0  0  0  0
   -5.8854   -1.8203    2.8521 H   0  0  0  0  0  0  0  0  0  0  0  0
   -7.1599   -2.2263    1.6670 H   0  0  0  0  0  0  0  0  0  0  0  0
   -6.6150    3.4725    1.6802 H   0  0  0  0  0  0  0  0  0  0  0  0
   -5.4298    2.8313    2.8537 H   0  0  0  0  0  0  0  0  0  0  0  0
   -6.6268    3.4617   -1.6771 H   0  0  0  0  0  0  0  0  0  0  0  0
   -5.4432    2.8263   -2.8556 H   0  0  0  0  0  0  0  0  0  0  0  0
    1.8185   -5.7801   -2.8566 H   0  0  0  0  0  0  0  0  0  0  0  0
    2.2076   -7.0707   -1.6843 H   0  0  0  0  0  0  0  0  0  0  0  0
    1.8077   -5.7543    2.8567 H   0  0  0  0  0  0  0  0  0  0  0  0
    2.2011   -7.0544    1.6960 H   0  0  0  0  0  0  0  0  0  0  0  0
    5.4254   -2.8281   -2.8558 H   0  0  0  0  0  0  0  0  0  0  0  0
    6.6125   -3.4705   -1.6849 H   0  0  0  0  0  0  0  0  0  0  0  0
    5.4489   -2.8305    2.8534 H   0  0  0  0  0  0  0  0  0  0  0  0
    6.6304   -3.4640    1.6718 H   0  0  0  0  0  0  0  0  0  0  0  0
    6.6086    3.9157    0.0054 H   0  0  0  0  0  0  0  0  0  0  0  0
    5.0080    5.7641    0.0170 H   0  0  0  0  0  0  0  0  0  0  0  0
    5.8879    1.8135    2.8542 H   0  0  0  0  0  0  0  0  0  0  0  0
    7.1610    2.2238    1.6699 H   0  0  0  0  0  0  0  0  0  0  0  0
    5.8860    1.8225   -2.8517 H   0  0  0  0  0  0  0  0  0  0  0  0
    7.1602    2.2276   -1.6659 H   0  0  0  0  0  0  0  0  0  0  0  0
   -3.8842    6.5592   -0.0109 H   0  0  0  0  0  0  0  0  0  0  0  0
   -5.7816    5.0188    0.0055 H   0  0  0  0  0  0  0  0  0  0  0  0
   -2.2093    7.0704    1.6835 H   0  0  0  0  0  0  0  0  0  0  0  0
   -1.8208    5.7798    2.8561 H   0  0  0  0  0  0  0  0  0  0  0  0
   -2.1998    7.0552   -1.6964 H   0  0  0  0  0  0  0  0  0  0  0  0
   -1.8051    5.7556   -2.8572 H   0  0  0  0  0  0  0  0  0  0  0  0
    0.5790   -2.2060   -0.2610 O   0  0  0  0  0  0  0  0  0  0  0  0
   -0.7370   -1.2460    3.7530 C   0  0  0  0  0  0  0  0  0  0  0  0
    0.5980   -1.1750    3.9580 C   0  0  0  0  0  0  0  0  0  0  0  0
    1.5490   -0.7490    2.9710 C   0  0  0  0  0  0  0  0  0  0  0  0
    1.4410   -0.9860    1.6570 C   0  0  0  0  0  0  0  0  0  0  0  0
    0.3860   -1.9080    1.1110 C   0  0  0  0  0  0  0  0  0  0  0  0
   -0.8750   -1.1210    1.3010 C   0  0  0  0  0  0  0  0  0  0  0  0
   -1.3900   -0.9140    2.5190 C   0  0  0  0  0  0  0  0  0  0  0  0
   -1.3800   -1.4290    4.6030 H   0  0  0  0  0  0  0  0  0  0  0  0
    0.9750   -1.3040    4.9650 H   0  0  0  0  0  0  0  0  0  0  0  0
    2.3880   -0.1720    3.3350 H   0  0  0  0  0  0  0  0  0  0  0  0
    2.1050   -0.5360    0.9350 H   0  0  0  0  0  0  0  0  0  0  0  0
    0.3460   -2.8250    1.7190 H   0  0  0  0  0  0  0  0  0  0  0  0
   -1.3450   -0.7530    0.4030 H   0  0  0  0  0  0  0  0  0  0  0  0
   -2.3580   -0.4390    2.6060 H   0  0  0  0  0  0  0  0  0  0  0  0
    0.3330   -1.1590   -1.1750 C   0  0  0  0  0  0  0  0  0  0  0  0
   -0.7090   -1.4860   -2.2100 C   0  0  0  0  0  0  0  0  0  0  0  0
   -1.2910   -0.5350   -2.9480 C   0  0  0  0  0  0  0  0  0  0  0  0
   -0.8970    0.8470   -2.9770 C   0  0  0  0  0  0  0  0  0  0  0  0
    0.3720    1.2880   -2.8440 C   0  0  0  0  0  0  0  0  0  0  0  0
    1.5170    0.4400   -2.6580 C   0  0  0  0  0  0  0  0  0  0  0  0
    1.5210   -0.7120   -1.9780 C   0  0  0  0  0  0  0  0  0  0  0  0
   -0.0240   -0.3290   -0.5470 H   0  0  0  0  0  0  0  0  0  0  0  0
   -0.9950   -2.5230   -2.3060 H   0  0  0  0  0  0  0  0  0  0  0  0
   -2.1120   -0.8070   -3.6000 H   0  0  0  0  0  0  0  0  0  0  0  0
   -1.6660    1.5560   -3.2540 H   0  0  0  0  0  0  0  0  0  0  0  0
    0.5770    2.3360   -3.0200 H   0  0  0  0  0  0  0  0  0  0  0  0
    2.4310    0.7680   -3.1350 H   0  0  0  0  0  0  0  0  0  0  0  0
    2.3920   -1.3510   -1.9690 H   0  0  0  0  0  0  0  0  0  0  0  0
  1  2  1  0
  2 97  1  1
  2  6  1  0
  3 98  1  6
  3  2  1  0
  3  8  1  0
  4  3  1  0
  5  1  1  0
  5  4  1  0
  6 66  1  0
  6  7  1  0
  7 10  2  0
  8 52  1  0
  8  7  1  0
  9  5  2  0
 11 12  1  0
 12 99  1  6
 12 13  1  0
 12 16  1  0
 13100  1  1
 13 18  1  0
 14 13  1  0
 15 14  1  0
 15 11  1  0
 16 52  1  0
 16 17  1  0
 17 20  2  0
 18 70  1  0
 18 17  1  0
 19 15  2  0
 21 22  1  0
 22101  1  6
 22 23  1  0
 22 26  1  0
 23102  1  1
 23 28  1  0
 24 23  1  0
 25 21  1  0
 25 24  1  0
 26 95  1  0
 26 27  1  0
 27 30  2  0
 28 53  1  0
 28 27  1  0
 29 25  2  0
 31 32  1  0
 32103  1  1
 32 36  1  0
 33 32  1  0
 33104  1  6
 33 38  1  0
 34 33  1  0
 35 34  1  0
 35 31  1  0
 36 83  1  0
 36 37  1  0
 37 40  2  0
 38 72  1  0
 38 37  1  0
 39 35  2  0
 41 42  1  0
 42105  1  1
 42 46  1  0
 43106  1  6
 43 42  1  0
 43 48  1  0
 44 43  1  0
 45 41  1  0
 45 44  1  0
 46 70  1  0
 46 47  1  0
 47 50  2  0
 48 72  1  0
 48 47  1  0
 49 45  2  0
 51107  1  0
 51 80  1  0
 51 24  1  0
 52109  1  0
 53111  1  0
 54114  1  0
 54 11  1  0
 54  4  1  0
 55 56  1  0
 56 57  1  0
 56115  1  1
 56 60  1  0
 57116  1  6
 57 62  1  0
 58 57  1  0
 59 55  1  0
 59 58  1  0
 60 66  1  0
 60 61  1  0
 61 64  2  0
 62 67  1  0
 62 61  1  0
 63 59  2  0
 65118  1  0
 65  1  1  0
 65 55  1  0
 66119  1  0
 67122  1  0
 68123  1  0
 68 92  1  0
 68 58  1  0
 69126  1  0
 69 14  1  0
 69 41  1  0
 70127  1  0
 71130  1  0
 71 34  1  0
 71 44  1  0
 72131  1  0
 73 83  1  0
 73 77  1  0
 74133  1  6
 74 75  1  0
 74 73  1  0
 75134  1  1
 75 76  1  0
 76 53  1  0
 76 77  1  0
 77 81  2  0
 78 74  1  0
 79 80  1  0
 79 78  1  0
 80 75  1  0
 82 79  2  0
 83135  1  0
 84138  1  0
 84 31  1  0
 84 78  1  0
 85 95  1  0
 85 89  1  0
 86139  1  6
 86 87  1  0
 86 85  1  0
 87140  1  1
 87 88  1  0
 88 67  1  0
 88 89  1  0
 89 93  2  0
 90 86  1  0
 91 92  1  0
 91 90  1  0
 92 87  1  0
 94 91  2  0
 95142  1  0
 96143  1  0
 96 90  1  0
 96 21  1  0
108 51  1  0
110 52  1  0
112 53  1  0
113 54  1  0
117 65  1  0
120 66  1  0
121 67  1  0
124 68  1  0
125 69  1  0
128 70  1  0
129 71  1  0
132 72  1  0
136 83  1  0
137 84  1  0
141 95  1  0
144 96  1  0
145150  1  0
146147  2  0
146153  1  0
147154  1  0
148155  1  0
148147  1  0
149148  2  0
150151  1  0
150149  1  0
150157  1  0
151152  2  0
152159  1  0
152146  1  0
156149  1  0
158151  1  0
160167  1  0
160145  1  0
161160  1  0
162161  2  0
163162  1  0
163164  2  0
164165  1  0
165166  2  0
166173  1  0
166160  1  0
168161  1  0
169162  1  0
170163  1  0
171164  1  0
172165  1  0
M  END
$$$$
optlog.xyz
     RDKit          3D

173198  0  0  1  0  0  0  0  0999 V2000
   -5.2520   -2.8849   -1.2197 N   0  0  0  0  0  0  0  0  0  0  0  0
   -5.5609   -3.5977   -0.0027 C   0  0  1  0  0  0  0  0  0  0  0  0
   -4.5429   -4.7721   -0.0049 C   0  0  1  0  0  0  0  0  0  0  0  0
   -3.7892   -4.5604   -1.2189 N   0  0  0  0  0  0  0  0  0  0  0  0
   -4.2397   -3.4773   -1.9399 C   0  0  0  0  0  0  0  0  0  0  0  0
   -5.2500   -2.8879    1.2165 N   0  0  0  0  0  0  0  0  0  0  0  0
   -4.2453   -3.4901    1.9396 C   0  0  0  0  0  0  0  0  0  0  0  0
   -3.7995   -4.5743    1.2172 N   0  0  0  0  0  0  0  0  0  0  0  0
   -3.8357   -3.1257   -3.0370 O   0  0  0  0  0  0  0  0  0  0  0  0
   -3.8438   -3.1443    3.0396 O   0  0  0  0  0  0  0  0  0  0  0  0
   -1.6327   -5.6618   -1.2192 N   0  0  0  0  0  0  0  0  0  0  0  0
   -1.3661   -6.3954   -0.0038 C   0  0  1  0  0  0  0  0  0  0  0  0
    0.1814   -6.5361    0.0006 C   0  0  1  0  0  0  0  0  0  0  0  0
    0.5814   -5.8762   -1.2195 N   0  0  0  0  0  0  0  0  0  0  0  0
   -0.4902   -5.4034   -1.9430 C   0  0  0  0  0  0  0  0  0  0  0  0
   -1.6411   -5.6751    1.2168 N   0  0  0  0  0  0  0  0  0  0  0  0
   -0.5017   -5.4039    1.9408 C   0  0  0  0  0  0  0  0  0  0  0  0
    0.5758   -5.8631    1.2164 N   0  0  0  0  0  0  0  0  0  0  0  0
   -0.4398   -4.8784   -3.0440 O   0  0  0  0  0  0  0  0  0  0  0  0
   -0.4572   -4.8790    3.0422 O   0  0  0  0  0  0  0  0  0  0  0  0
   -0.5748    5.8636   -1.2157 N   0  0  0  0  0  0  0  0  0  0  0  0
   -0.1813    6.5367    0.0003 C   0  0  2  0  0  0  0  0  0  0  0  0
    1.3662    6.3959    0.0060 C   0  0  2  0  0  0  0  0  0  0  0  0
    1.6421    5.6766   -1.2150 N   0  0  0  0  0  0  0  0  0  0  0  0
    0.5032    5.4046   -1.9393 C   0  0  0  0  0  0  0  0  0  0  0  0
   -0.5823    5.8768    1.2202 N   0  0  0  0  0  0  0  0  0  0  0  0
    0.4887    5.4031    1.9440 C   0  0  0  0  0  0  0  0  0  0  0  0
    1.6318    5.6612    1.2209 N   0  0  0  0  0  0  0  0  0  0  0  0
    0.4595    4.8794   -3.0405 O   0  0  0  0  0  0  0  0  0  0  0  0
    0.4374    4.8775    3.0448 O   0  0  0  0  0  0  0  0  0  0  0  0
    5.9872    0.5809   -1.2187 N   0  0  0  0  0  0  0  0  0  0  0  0
    6.6534    0.1784   -0.0020 C   0  0  2  0  0  0  0  0  0  0  0  0
    6.5031   -1.3690   -0.0038 C   0  0  2  0  0  0  0  0  0  0  0  0
    5.7771   -1.6328   -1.2239 N   0  0  0  0  0  0  0  0  0  0  0  0
    5.5094   -0.4890   -1.9410 C   0  0  0  0  0  0  0  0  0  0  0  0
    5.9914    0.5765    1.2181 N   0  0  0  0  0  0  0  0  0  0  0  0
    5.5131   -0.4950    1.9374 C   0  0  0  0  0  0  0  0  0  0  0  0
    5.7707   -1.6368    1.2122 N   0  0  0  0  0  0  0  0  0  0  0  0
    4.9749   -0.4358   -3.0375 O   0  0  0  0  0  0  0  0  0  0  0  0
    4.9849   -0.4453    3.0370 O   0  0  0  0  0  0  0  0  0  0  0  0
    2.9014   -5.1763   -1.2190 N   0  0  0  0  0  0  0  0  0  0  0  0
    3.5990   -5.5016    0.0026 C   0  0  1  0  0  0  0  0  0  0  0  0
    4.8059   -4.5222   -0.0005 C   0  0  1  0  0  0  0  0  0  0  0  0
    4.6164   -3.7594   -1.2129 N   0  0  0  0  0  0  0  0  0  0  0  0
    3.5245   -4.1818   -1.9381 C   0  0  0  0  0  0  0  0  0  0  0  0
    2.8945   -5.1617    1.2175 N   0  0  0  0  0  0  0  0  0  0  0  0
    3.5315   -4.1786    1.9414 C   0  0  0  0  0  0  0  0  0  0  0  0
    4.6338   -3.7759    1.2230 N   0  0  0  0  0  0  0  0  0  0  0  0
    3.1884   -3.7705   -3.0374 O   0  0  0  0  0  0  0  0  0  0  0  0
    3.1971   -3.7628    3.0395 O   0  0  0  0  0  0  0  0  0  0  0  0
    2.9587    5.5920   -1.7934 C   0  0  0  0  0  0  0  0  0  0  0  0
   -2.9574   -5.5895    1.7959 C   0  0  0  0  0  0  0  0  0  0  0  0
    2.9453    5.5701    1.8054 C   0  0  0  0  0  0  0  0  0  0  0  0
   -2.9467   -5.5721   -1.8031 C   0  0  0  0  0  0  0  0  0  0  0  0
   -5.9923   -0.5779   -1.2184 N   0  0  0  0  0  0  0  0  0  0  0  0
   -6.6538   -0.1784    0.0014 C   0  0  2  0  0  0  0  0  0  0  0  0
   -6.5030    1.3690    0.0015 C   0  0  2  0  0  0  0  0  0  0  0  0
   -5.7678    1.6349   -1.2134 N   0  0  0  0  0  0  0  0  0  0  0  0
   -5.5109    0.4923   -1.9373 C   0  0  0  0  0  0  0  0  0  0  0  0
   -5.9872   -0.5797    1.2184 N   0  0  0  0  0  0  0  0  0  0  0  0
   -5.5113    0.4910    1.9408 C   0  0  0  0  0  0  0  0  0  0  0  0
   -5.7794    1.6341    1.2227 N   0  0  0  0  0  0  0  0  0  0  0  0
   -4.9808    0.4411   -3.0359 O   0  0  0  0  0  0  0  0  0  0  0  0
   -4.9780    0.4389    3.0378 O   0  0  0  0  0  0  0  0  0  0  0  0
   -6.1251   -1.8924   -1.7917 C   0  0  0  0  0  0  0  0  0  0  0  0
   -6.1218   -1.8949    1.7904 C   0  0  0  0  0  0  0  0  0  0  0  0
   -5.6575    2.9501    1.7940 C   0  0  0  0  0  0  0  0  0  0  0  0
   -5.6645    2.9491   -1.7950 C   0  0  0  0  0  0  0  0  0  0  0  0
    1.8925   -6.0263   -1.7970 C   0  0  0  0  0  0  0  0  0  0  0  0
    1.8851   -6.0089    1.7994 C   0  0  0  0  0  0  0  0  0  0  0  0
    5.6547   -2.9482   -1.7966 C   0  0  0  0  0  0  0  0  0  0  0  0
    5.6684   -2.9516    1.7922 C   0  0  0  0  0  0  0  0  0  0  0  0
    5.2508    2.8834    1.2207 N   0  0  0  0  0  0  0  0  0  0  0  0
    5.5605    3.5975    0.0046 C   0  0  2  0  0  0  0  0  0  0  0  0
    4.5429    4.7721    0.0076 C   0  0  2  0  0  0  0  0  0  0  0  0
    3.7877    4.5588    1.2205 N   0  0  0  0  0  0  0  0  0  0  0  0
    4.2375    3.4748    1.9405 C   0  0  0  0  0  0  0  0  0  0  0  0
    5.2501    2.8890   -1.2154 N   0  0  0  0  0  0  0  0  0  0  0  0
    4.2464    3.4926   -1.9388 C   0  0  0  0  0  0  0  0  0  0  0  0
    3.8006    4.5762   -1.2156 N   0  0  0  0  0  0  0  0  0  0  0  0
    3.8323    3.1217    3.0366 O   0  0  0  0  0  0  0  0  0  0  0  0
    3.8457    3.1483   -3.0395 O   0  0  0  0  0  0  0  0  0  0  0  0
    6.1236    1.8906    1.7925 C   0  0  0  0  0  0  0  0  0  0  0  0
    6.1221    1.8964   -1.7898 C   0  0  0  0  0  0  0  0  0  0  0  0
   -2.9017    5.1756    1.2173 N   0  0  0  0  0  0  0  0  0  0  0  0
   -3.5988    5.5014   -0.0045 C   0  0  2  0  0  0  0  0  0  0  0  0
   -4.8055    4.5218   -0.0026 C   0  0  2  0  0  0  0  0  0  0  0  0
   -4.6181    3.7604    1.2110 N   0  0  0  0  0  0  0  0  0  0  0  0
   -3.5262    4.1819    1.9364 C   0  0  0  0  0  0  0  0  0  0  0  0
   -2.8937    5.1626   -1.2192 N   0  0  0  0  0  0  0  0  0  0  0  0
   -3.5291    4.1785   -1.9433 C   0  0  0  0  0  0  0  0  0  0  0  0
   -4.6310    3.7741   -1.2250 N   0  0  0  0  0  0  0  0  0  0  0  0
   -3.1911    3.7707    3.0360 O   0  0  0  0  0  0  0  0  0  0  0  0
   -3.1940    3.7631   -3.0414 O   0  0  0  0  0  0  0  0  0  0  0  0
   -1.8939    6.0261    1.7964 C   0  0  0  0  0  0  0  0  0  0  0  0
   -1.8836    6.0098   -1.7999 C   0  0  0  0  0  0  0  0  0  0  0  0
   -6.6089   -3.9161   -0.0025 H   0  0  0  0  0  0  0  0  0  0  0  0
   -5.0078   -5.7641   -0.0125 H   0  0  0  0  0  0  0  0  0  0  0  0
   -1.8991   -7.3524   -0.0108 H   0  0  0  0  0  0  0  0  0  0  0  0
    0.5332   -7.5736    0.0065 H   0  0  0  0  0  0  0  0  0  0  0  0
   -0.5332    7.5742   -0.0057 H   0  0  0  0  0  0  0  0  0  0  0  0
    1.8992    7.3529    0.0142 H   0  0  0  0  0  0  0  0  0  0  0  0
    7.6926    0.5250   -0.0030 H   0  0  0  0  0  0  0  0  0  0  0  0
    7.4560   -1.9093   -0.0019 H   0  0  0  0  0  0  0  0  0  0  0  0
    3.8841   -6.5594    0.0095 H   0  0  0  0  0  0  0  0  0  0  0  0
    5.7819   -5.0194   -0.0109 H   0  0  0  0  0  0  0  0  0  0  0  0
    3.4541    6.5641   -1.6823 H   0  0  0  0  0  0  0  0  0  0  0  0
    2.8408    5.3613   -2.8526 H   0  0  0  0  0  0  0  0  0  0  0  0
   -2.8388   -5.3574    2.8547 H   0  0  0  0  0  0  0  0  0  0  0  0
   -3.4530   -6.5617    1.6863 H   0  0  0  0  0  0  0  0  0  0  0  0
    2.8222    5.3289    2.8616 H   0  0  0  0  0  0  0  0  0  0  0  0
    3.4428    6.5427    1.7056 H   0  0  0  0  0  0  0  0  0  0  0  0
   -2.8243   -5.3321   -2.8596 H   0  0  0  0  0  0  0  0  0  0  0  0
   -3.4436   -6.5447   -1.7017 H   0  0  0  0  0  0  0  0  0  0  0  0
   -7.6930   -0.5246    0.0031 H   0  0  0  0  0  0  0  0  0  0  0  0
   -7.4557    1.9097   -0.0030 H   0  0  0  0  0  0  0  0  0  0  0  0
   -5.8900   -1.8161   -2.8536 H   0  0  0  0  0  0  0  0  0  0  0  0
   -7.1624   -2.2254   -1.6682 H   0  0  0  0  0  0  0  0  0  0  0  0
   -5.8854   -1.8203    2.8521 H   0  0  0  0  0  0  0  0  0  0  0  0
   -7.1599   -2.2263    1.6670 H   0  0  0  0  0  0  0  0  0  0  0  0
   -6.6150    3.4725    1.6802 H   0  0  0  0  0  0  0  0  0  0  0  0
   -5.4298    2.8313    2.8537 H   0  0  0  0  0  0  0  0  0  0  0  0
   -6.6268    3.4617   -1.6771 H   0  0  0  0  0  0  0  0  0  0  0  0
   -5.4432    2.8263   -2.8556 H   0  0  0  0  0  0  0  0  0  0  0  0
    1.8185   -5.7801   -2.8566 H   0  0  0  0  0  0  0  0  0  0  0  0
    2.2076   -7.0707   -1.6843 H   0  0  0  0  0  0  0  0  0  0  0  0
    1.8077   -5.7543    2.8567 H   0  0  0  0  0  0  0  0  0  0  0  0
    2.2011   -7.0544    1.6960 H   0  0  0  0  0  0  0  0  0  0  0  0
    5.4254   -2.8281   -2.8558 H   0  0  0  0  0  0  0  0  0  0  0  0
    6.6125   -3.4705   -1.6849 H   0  0  0  0  0  0  0  0  0  0  0  0
    5.4489   -2.8305    2.8534 H   0  0  0  0  0  0  0  0  0  0  0  0
    6.6304   -3.4640    1.6718 H   0  0  0  0  0  0  0  0  0  0  0  0
    6.6086    3.9157    0.0054 H   0  0  0  0  0  0  0  0  0  0  0  0
    5.0080    5.7641    0.0170 H   0  0  0  0  0  0  0  0  0  0  0  0
    5.8879    1.8135    2.8542 H   0  0  0  0  0  0  0  0  0  0  0  0
    7.1610    2.2238    1.6699 H   0  0  0  0  0  0  0  0  0  0  0  0
    5.8860    1.8225   -2.8517 H   0  0  0  0  0  0  0  0  0  0  0  0
    7.1602    2.2276   -1.6659 H   0  0  0  0  0  0  0  0  0  0  0  0
   -3.8842    6.5592   -0.0109 H   0  0  0  0  0  0  0  0  0  0  0  0
   -5.7816    5.0188    0.0055 H   0  0  0  0  0  0  0  0  0  0  0  0
   -2.2093    7.0704    1.6835 H   0  0  0  0  0  0  0  0  0  0  0  0
   -1.8208    5.7798    2.8561 H   0  0  0  0  0  0  0  0  0  0  0  0
   -2.1998    7.0552   -1.6964 H   0  0  0  0  0  0  0  0  0  0  0  0
   -1.8051    5.7556   -2.8572 H   0  0  0  0  0  0  0  0  0  0  0  0
    0.5840    0.6480    0.2360 O   0  0  0  0  0  0  0  0  0  0  0  0
    0.3760   -1.2840    2.6200 C   0  0  0  0  0  0  0  0  0  0  0  0
   -0.8210   -1.5090    2.0370 C   0  0  0  0  0  0  0  0  0  0  0  0
   -1.8050   -0.5010    1.7690 C   0  0  0  0  0  0  0  0  0  0  0  0
   -1.5580    0.7840    1.4800 C   0  0  0  0  0  0  0  0  0  0  0  0
   -0.1820    1.3310    1.2280 C   0  0  0  0  0  0  0  0  0  0  0  0
    0.5340    1.1830    2.5370 C   0  0  0  0  0  0  0  0  0  0  0  0
    0.8360   -0.0060    3.0750 C   0  0  0  0  0  0  0  0  0  0  0  0
    0.9870   -2.1350    2.8880 H   0  0  0  0  0  0  0  0  0  0  0  0
   -1.1260   -2.5340    1.8630 H   0  0  0  0  0  0  0  0  0  0  0  0
   -2.8370   -0.8270    1.8170 H   0  0  0  0  0  0  0  0  0  0  0  0
   -2.3820    1.4810    1.3960 H   0  0  0  0  0  0  0  0  0  0  0  0
   -0.2440    2.3970    0.9640 H   0  0  0  0  0  0  0  0  0  0  0  0
    0.8510    2.0940    3.0220 H   0  0  0  0  0  0  0  0  0  0  0  0
    1.4710   -0.0240    3.9520 H   0  0  0  0  0  0  0  0  0  0  0  0
    0.0300    0.4010   -1.0430 C   0  0  0  0  0  0  0  0  0  0  0  0
    0.0550   -0.9920   -1.5910 C   0  0  0  0  0  0  0  0  0  0  0  0
   -0.7550   -1.3460   -2.5970 C   0  0  0  0  0  0  0  0  0  0  0  0
   -1.5590   -0.4410   -3.3640 C   0  0  0  0  0  0  0  0  0  0  0  0
   -1.1850    0.8180   -3.6880 C   0  0  0  0  0  0  0  0  0  0  0  0
    0.0600    1.4170   -3.3010 C   0  0  0  0  0  0  0  0  0  0  0  0
    0.6930    1.1800   -2.1460 C   0  0  0  0  0  0  0  0  0  0  0  0
   -1.0180    0.7330   -0.9610 H   0  0  0  0  0  0  0  0  0  0  0  0
    0.7400   -1.7060   -1.1650 H   0  0  0  0  0  0  0  0  0  0  0  0
   -0.7910   -2.3850   -2.8990 H   0  0  0  0  0  0  0  0  0  0  0  0
   -2.4450   -0.8550   -3.8290 H   0  0  0  0  0  0  0  0  0  0  0  0
   -1.7850    1.3700   -4.3990 H   0  0  0  0  0  0  0  0  0  0  0  0
    0.5130    2.0820   -4.0240 H   0  0  0  0  0  0  0  0  0  0  0  0
    1.6790    1.5680   -1.9440 H   0  0  0  0  0  0  0  0  0  0  0  0
  1  2  1  0
  2 97  1  1
  2  6  1  0
  3 98  1  6
  3  2  1  0
  3  8  1  0
  4  3  1  0
  5  1  1  0
  5  4  1  0
  6 66  1  0
  6  7  1  0
  7 10  2  0
  8 52  1  0
  8  7  1  0
  9  5  2  0
 11 12  1  0
 12 99  1  6
 12 13  1  0
 12 16  1  0
 13100  1  1
 13 18  1  0
 14 13  1  0
 15 14  1  0
 15 11  1  0
 16 52  1  0
 16 17  1  0
 17 20  2  0
 18 70  1  0
 18 17  1  0
 19 15  2  0
 21 22  1  0
 22101  1  6
 22 23  1  0
 22 26  1  0
 23102  1  1
 23 28  1  0
 24 23  1  0
 25 21  1  0
 25 24  1  0
 26 95  1  0
 26 27  1  0
 27 30  2  0
 28 53  1  0
 28 27  1  0
 29 25  2  0
 31 32  1  0
 32103  1  1
 32 36  1  0
 33 32  1  0
 33104  1  6
 33 38  1  0
 34 33  1  0
 35 34  1  0
 35 31  1  0
 36 83  1  0
 36 37  1  0
 37 40  2  0
 38 72  1  0
 38 37  1  0
 39 35  2  0
 41 42  1  0
 42105  1  1
 42 46  1  0
 43106  1  6
 43 42  1  0
 43 48  1  0
 44 43  1  0
 45 41  1  0
 45 44  1  0
 46 70  1  0
 46 47  1  0
 47 50  2  0
 48 72  1  0
 48 47  1  0
 49 45  2  0
 51107  1  0
 51 80  1  0
 51 24  1  0
 52109  1  0
 53111  1  0
 54114  1  0
 54 11  1  0
 54  4  1  0
 55 56  1  0
 56 57  1  0
 56115  1  1
 56 60  1  0
 57116  1  6
 57 62  1  0
 58 57  1  0
 59 55  1  0
 59 58  1  0
 60 66  1  0
 60 61  1  0
 61 64  2  0
 62 67  1  0
 62 61  1  0
 63 59  2  0
 65118  1  0
 65  1  1  0
 65 55  1  0
 66119  1  0
 67122  1  0
 68123  1  0
 68 92  1  0
 68 58  1  0
 69126  1  0
 69 14  1  0
 69 41  1  0
 70127  1  0
 71130  1  0
 71 34  1  0
 71 44  1  0
 72131  1  0
 73 83  1  0
 73 77  1  0
 74133  1  6
 74 75  1  0
 74 73  1  0
 75134  1  1
 75 76  1  0
 76 53  1  0
 76 77  1  0
 77 81  2  0
 78 74  1  0
 79 80  1  0
 79 78  1  0
 80 75  1  0
 82 79  2  0
 83135  1  0
 84138  1  0
 84 31  1  0
 84 78  1  0
 85 95  1  0
 85 89  1  0
 86139  1  6
 86 87  1  0
 86 85  1  0
 87140  1  1
 87 88  1  0
 88 67  1  0
 88 89  1  0
 89 93  2  0
 90 86  1  0
 91 92  1  0
 91 90  1  0
 92 87  1  0
 94 91  2  0
 95142  1  0
 96143  1  0
 96 90  1  0
 96 21  1  0
108 51  1  0
110 52  1  0
112 53  1  0
113 54  1  0
117 65  1  0
120 66  1  0
121 67  1  0
124 68  1  0
125 69  1  0
128 70  1  0
129 71  1  0
132 72  1  0
136 83  1  0
137 84  1  0
141 95  1  0
144 96  1  0
145150  1  0
146153  1  0
146152  1  0
147146  2  0
148155  1  0
148147  1  0
149148  2  0
150157  1  0
150149  1  0
150151  1  0
151158  1  0
151152  2  0
152159  1  0
154147  1  0
156149  1  0
160167  1  0
160145  1  0
161168  1  0
161160  1  0
162161  2  0
163162  1  0
164163  2  0
164165  1  0
165166  2  0
166173  1  0
166160  1  0
169162  1  0
170163  1  0
171164  1  0
172165  1  0
M  END
$$$$
optlog.xyz
     RDKit          3D

173198  0  0  1  0  0  0  0  0999 V2000
   -5.2520   -2.8849   -1.2197 N   0  0  0  0  0  0  0  0  0  0  0  0
   -5.5609   -3.5977   -0.0027 C   0  0  1  0  0  0  0  0  0  0  0  0
   -4.5429   -4.7721   -0.0049 C   0  0  1  0  0  0  0  0  0  0  0  0
   -3.7892   -4.5604   -1.2189 N   0  0  0  0  0  0  0  0  0  0  0  0
   -4.2397   -3.4773   -1.9399 C   0  0  0  0  0  0  0  0  0  0  0  0
   -5.2500   -2.8879    1.2165 N   0  0  0  0  0  0  0  0  0  0  0  0
   -4.2453   -3.4901    1.9396 C   0  0  0  0  0  0  0  0  0  0  0  0
   -3.7995   -4.5743    1.2172 N   0  0  0  0  0  0  0  0  0  0  0  0
   -3.8357   -3.1257   -3.0370 O   0  0  0  0  0  0  0  0  0  0  0  0
   -3.8438   -3.1443    3.0396 O   0  0  0  0  0  0  0  0  0  0  0  0
   -1.6327   -5.6618   -1.2192 N   0  0  0  0  0  0  0  0  0  0  0  0
   -1.3661   -6.3954   -0.0038 C   0  0  1  0  0  0  0  0  0  0  0  0
    0.1814   -6.5361    0.0006 C   0  0  1  0  0  0  0  0  0  0  0  0
    0.5814   -5.8762   -1.2195 N   0  0  0  0  0  0  0  0  0  0  0  0
   -0.4902   -5.4034   -1.9430 C   0  0  0  0  0  0  0  0  0  0  0  0
   -1.6411   -5.6751    1.2168 N   0  0  0  0  0  0  0  0  0  0  0  0
   -0.5017   -5.4039    1.9408 C   0  0  0  0  0  0  0  0  0  0  0  0
    0.5758   -5.8631    1.2164 N   0  0  0  0  0  0  0  0  0  0  0  0
   -0.4398   -4.8784   -3.0440 O   0  0  0  0  0  0  0  0  0  0  0  0
   -0.4572   -4.8790    3.0422 O   0  0  0  0  0  0  0  0  0  0  0  0
   -0.5748    5.8636   -1.2157 N   0  0  0  0  0  0  0  0  0  0  0  0
   -0.1813    6.5367    0.0003 C   0  0  2  0  0  0  0  0  0  0  0  0
    1.3662    6.3959    0.0060 C   0  0  2  0  0  0  0  0  0  0  0  0
    1.6421    5.6766   -1.2150 N   0  0  0  0  0  0  0  0  0  0  0  0
    0.5032    5.4046   -1.9393 C   0  0  0  0  0  0  0  0  0  0  0  0
   -0.5823    5.8768    1.2202 N   0  0  0  0  0  0  0  0  0  0  0  0
    0.4887    5.4031    1.9440 C   0  0  0  0  0  0  0  0  0  0  0  0
    1.6318    5.6612    1.2209 N   0  0  0  0  0  0  0  0  0  0  0  0
    0.4595    4.8794   -3.0405 O   0  0  0  0  0  0  0  0  0  0  0  0
    0.4374    4.8775    3.0448 O   0  0  0  0  0  0  0  0  0  0  0  0
    5.9872    0.5809   -1.2187 N   0  0  0  0  0  0  0  0  0  0  0  0
    6.6534    0.1784   -0.0020 C   0  0  2  0  0  0  0  0  0  0  0  0
    6.5031   -1.3690   -0.0038 C   0  0  2  0  0  0  0  0  0  0  0  0
    5.7771   -1.6328   -1.2239 N   0  0  0  0  0  0  0  0  0  0  0  0
    5.5094   -0.4890   -1.9410 C   0  0  0  0  0  0  0  0  0  0  0  0
    5.9914    0.5765    1.2181 N   0  0  0  0  0  0  0  0  0  0  0  0
    5.5131   -0.4950    1.9374 C   0  0  0  0  0  0  0  0  0  0  0  0
    5.7707   -1.6368    1.2122 N   0  0  0  0  0  0  0  0  0  0  0  0
    4.9749   -0.4358   -3.0375 O   0  0  0  0  0  0  0  0  0  0  0  0
    4.9849   -0.4453    3.0370 O   0  0  0  0  0  0  0  0  0  0  0  0
    2.9014   -5.1763   -1.2190 N   0  0  0  0  0  0  0  0  0  0  0  0
    3.5990   -5.5016    0.0026 C   0  0  1  0  0  0  0  0  0  0  0  0
    4.8059   -4.5222   -0.0005 C   0  0  1  0  0  0  0  0  0  0  0  0
    4.6164   -3.7594   -1.2129 N   0  0  0  0  0  0  0  0  0  0  0  0
    3.5245   -4.1818   -1.9381 C   0  0  0  0  0  0  0  0  0  0  0  0
    2.8945   -5.1617    1.2175 N   0  0  0  0  0  0  0  0  0  0  0  0
    3.5315   -4.1786    1.9414 C   0  0  0  0  0  0  0  0  0  0  0  0
    4.6338   -3.7759    1.2230 N   0  0  0  0  0  0  0  0  0  0  0  0
    3.1884   -3.7705   -3.0374 O   0  0  0  0  0  0  0  0  0  0  0  0
    3.1971   -3.7628    3.0395 O   0  0  0  0  0  0  0  0  0  0  0  0
    2.9587    5.5920   -1.7934 C   0  0  0  0  0  0  0  0  0  0  0  0
   -2.9574   -5.5895    1.7959 C   0  0  0  0  0  0  0  0  0  0  0  0
    2.9453    5.5701    1.8054 C   0  0  0  0  0  0  0  0  0  0  0  0
   -2.9467   -5.5721   -1.8031 C   0  0  0  0  0  0  0  0  0  0  0  0
   -5.9923   -0.5779   -1.2184 N   0  0  0  0  0  0  0  0  0  0  0  0
   -6.6538   -0.1784    0.0014 C   0  0  2  0  0  0  0  0  0  0  0  0
   -6.5030    1.3690    0.0015 C   0  0  2  0  0  0  0  0  0  0  0  0
   -5.7678    1.6349   -1.2134 N   0  0  0  0  0  0  0  0  0  0  0  0
   -5.5109    0.4923   -1.9373 C   0  0  0  0  0  0  0  0  0  0  0  0
   -5.9872   -0.5797    1.2184 N   0  0  0  0  0  0  0  0  0  0  0  0
   -5.5113    0.4910    1.9408 C   0  0  0  0  0  0  0  0  0  0  0  0
   -5.7794    1.6341    1.2227 N   0  0  0  0  0  0  0  0  0  0  0  0
   -4.9808    0.4411   -3.0359 O   0  0  0  0  0  0  0  0  0  0  0  0
   -4.9780    0.4389    3.0378 O   0  0  0  0  0  0  0  0  0  0  0  0
   -6.1251   -1.8924   -1.7917 C   0  0  0  0  0  0  0  0  0  0  0  0
   -6.1218   -1.8949    1.7904 C   0  0  0  0  0  0  0  0  0  0  0  0
   -5.6575    2.9501    1.7940 C   0  0  0  0  0  0  0  0  0  0  0  0
   -5.6645    2.9491   -1.7950 C   0  0  0  0  0  0  0  0  0  0  0  0
    1.8925   -6.0263   -1.7970 C   0  0  0  0  0  0  0  0  0  0  0  0
    1.8851   -6.0089    1.7994 C   0  0  0  0  0  0  0  0  0  0  0  0
    5.6547   -2.9482   -1.7966 C   0  0  0  0  0  0  0  0  0  0  0  0
    5.6684   -2.9516    1.7922 C   0  0  0  0  0  0  0  0  0  0  0  0
    5.2508    2.8834    1.2207 N   0  0  0  0  0  0  0  0  0  0  0  0
    5.5605    3.5975    0.0046 C   0  0  2  0  0  0  0  0  0  0  0  0
    4.5429    4.7721    0.0076 C   0  0  2  0  0  0  0  0  0  0  0  0
    3.7877    4.5588    1.2205 N   0  0  0  0  0  0  0  0  0  0  0  0
    4.2375    3.4748    1.9405 C   0  0  0  0  0  0  0  0  0  0  0  0
    5.2501    2.8890   -1.2154 N   0  0  0  0  0  0  0  0  0  0  0  0
    4.2464    3.4926   -1.9388 C   0  0  0  0  0  0  0  0  0  0  0  0
    3.8006    4.5762   -1.2156 N   0  0  0  0  0  0  0  0  0  0  0  0
    3.8323    3.1217    3.0366 O   0  0  0  0  0  0  0  0  0  0  0  0
    3.8457    3.1483   -3.0395 O   0  0  0  0  0  0  0  0  0  0  0  0
    6.1236    1.8906    1.7925 C   0  0  0  0  0  0  0  0  0  0  0  0
    6.1221    1.8964   -1.7898 C   0  0  0  0  0  0  0  0  0  0  0  0
   -2.9017    5.1756    1.2173 N   0  0  0  0  0  0  0  0  0  0  0  0
   -3.5988    5.5014   -0.0045 C   0  0  2  0  0  0  0  0  0  0  0  0
   -4.8055    4.5218   -0.0026 C   0  0  2  0  0  0  0  0  0  0  0  0
   -4.6181    3.7604    1.2110 N   0  0  0  0  0  0  0  0  0  0  0  0
   -3.5262    4.1819    1.9364 C   0  0  0  0  0  0  0  0  0  0  0  0
   -2.8937    5.1626   -1.2192 N   0  0  0  0  0  0  0  0  0  0  0  0
   -3.5291    4.1785   -1.9433 C   0  0  0  0  0  0  0  0  0  0  0  0
   -4.6310    3.7741   -1.2250 N   0  0  0  0  0  0  0  0  0  0  0  0
   -3.1911    3.7707    3.0360 O   0  0  0  0  0  0  0  0  0  0  0  0
   -3.1940    3.7631   -3.0414 O   0  0  0  0  0  0  0  0  0  0  0  0
   -1.8939    6.0261    1.7964 C   0  0  0  0  0  0  0  0  0  0  0  0
   -1.8836    6.0098   -1.7999 C   0  0  0  0  0  0  0  0  0  0  0  0
   -6.6089   -3.9161   -0.0025 H   0  0  0  0  0  0  0  0  0  0  0  0
   -5.0078   -5.7641   -0.0125 H   0  0  0  0  0  0  0  0  0  0  0  0
   -1.8991   -7.3524   -0.0108 H   0  0  0  0  0  0  0  0  0  0  0  0
    0.5332   -7.5736    0.0065 H   0  0  0  0  0  0  0  0  0  0  0  0
   -0.5332    7.5742   -0.0057 H   0  0  0  0  0  0  0  0  0  0  0  0
    1.8992    7.3529    0.0142 H   0  0  0  0  0  0  0  0  0  0  0  0
    7.6926    0.5250   -0.0030 H   0  0  0  0  0  0  0  0  0  0  0  0
    7.4560   -1.9093   -0.0019 H   0  0  0  0  0  0  0  0  0  0  0  0
    3.8841   -6.5594    0.0095 H   0  0  0  0  0  0  0  0  0  0  0  0
    5.7819   -5.0194   -0.0109 H   0  0  0  0  0  0  0  0  0  0  0  0
    3.4541    6.5641   -1.6823 H   0  0  0  0  0  0  0  0  0  0  0  0
    2.8408    5.3613   -2.8526 H   0  0  0  0  0  0  0  0  0  0  0  0
   -2.8388   -5.3574    2.8547 H   0  0  0  0  0  0  0  0  0  0  0  0
   -3.4530   -6.5617    1.6863 H   0  0  0  0  0  0  0  0  0  0  0  0
    2.8222    5.3289    2.8616 H   0  0  0  0  0  0  0  0  0  0  0  0
    3.4428    6.5427    1.7056 H   0  0  0  0  0  0  0  0  0  0  0  0
   -2.8243   -5.3321   -2.8596 H   0  0  0  0  0  0  0  0  0  0  0  0
   -3.4436   -6.5447   -1.7017 H   0  0  0  0  0  0  0  0  0  0  0  0
   -7.6930   -0.5246    0.0031 H   0  0  0  0  0  0  0  0  0  0  0  0
   -7.4557    1.9097   -0.0030 H   0  0  0  0  0  0  0  0  0  0  0  0
   -5.8900   -1.8161   -2.8536 H   0  0  0  0  0  0  0  0  0  0  0  0
   -7.1624   -2.2254   -1.6682 H   0  0  0  0  0  0  0  0  0  0  0  0
   -5.8854   -1.8203    2.8521 H   0  0  0  0  0  0  0  0  0  0  0  0
   -7.1599   -2.2263    1.6670 H   0  0  0  0  0  0  0  0  0  0  0  0
   -6.6150    3.4725    1.6802 H   0  0  0  0  0  0  0  0  0  0  0  0
   -5.4298    2.8313    2.8537 H   0  0  0  0  0  0  0  0  0  0  0  0
   -6.6268    3.4617   -1.6771 H   0  0  0  0  0  0  0  0  0  0  0  0
   -5.4432    2.8263   -2.8556 H   0  0  0  0  0  0  0  0  0  0  0  0
    1.8185   -5.7801   -2.8566 H   0  0  0  0  0  0  0  0  0  0  0  0
    2.2076   -7.0707   -1.6843 H   0  0  0  0  0  0  0  0  0  0  0  0
    1.8077   -5.7543    2.8567 H   0  0  0  0  0  0  0  0  0  0  0  0
    2.2011   -7.0544    1.6960 H   0  0  0  0  0  0  0  0  0  0  0  0
    5.4254   -2.8281   -2.8558 H   0  0  0  0  0  0  0  0  0  0  0  0
    6.6125   -3.4705   -1.6849 H   0  0  0  0  0  0  0  0  0  0  0  0
    5.4489   -2.8305    2.8534 H   0  0  0  0  0  0  0  0  0  0  0  0
    6.6304   -3.4640    1.6718 H   0  0  0  0  0  0  0  0  0  0  0  0
    6.6086    3.9157    0.0054 H   0  0  0  0  0  0  0  0  0  0  0  0
    5.0080    5.7641    0.0170 H   0  0  0  0  0  0  0  0  0  0  0  0
    5.8879    1.8135    2.8542 H   0  0  0  0  0  0  0  0  0  0  0  0
    7.1610    2.2238    1.6699 H   0  0  0  0  0  0  0  0  0  0  0  0
    5.8860    1.8225   -2.8517 H   0  0  0  0  0  0  0  0  0  0  0  0
    7.1602    2.2276   -1.6659 H   0  0  0  0  0  0  0  0  0  0  0  0
   -3.8842    6.5592   -0.0109 H   0  0  0  0  0  0  0  0  0  0  0  0
   -5.7816    5.0188    0.0055 H   0  0  0  0  0  0  0  0  0  0  0  0
   -2.2093    7.0704    1.6835 H   0  0  0  0  0  0  0  0  0  0  0  0
   -1.8208    5.7798    2.8561 H   0  0  0  0  0  0  0  0  0  0  0  0
   -2.1998    7.0552   -1.6964 H   0  0  0  0  0  0  0  0  0  0  0  0
   -1.8051    5.7556   -2.8572 H   0  0  0  0  0  0  0  0  0  0  0  0
   -0.8170   -0.2140    1.2380 O   0  0  0  0  0  0  0  0  0  0  0  0
    0.7550    0.7440   -1.1260 C   0  0  0  0  0  0  0  0  0  0  0  0
    0.4130    1.9160   -0.5460 C   0  0  0  0  0  0  0  0  0  0  0  0
   -0.9330    2.3440   -0.3100 C   0  0  0  0  0  0  0  0  0  0  0  0
   -1.9710    1.5430   -0.0330 C   0  0  0  0  0  0  0  0  0  0  0  0
   -1.8130    0.0810    0.2660 C   0  0  0  0  0  0  0  0  0  0  0  0
   -1.3750   -0.5030   -1.0450 C   0  0  0  0  0  0  0  0  0  0  0  0
   -0.1770   -0.2410   -1.5850 C   0  0  0  0  0  0  0  0  0  0  0  0
    1.7930    0.5780   -1.3830 H   0  0  0  0  0  0  0  0  0  0  0  0
    1.1890    2.6480   -0.3610 H   0  0  0  0  0  0  0  0  0  0  0  0
   -1.1090    3.4100   -0.3860 H   0  0  0  0  0  0  0  0  0  0  0  0
   -2.9740    1.9450    0.0140 H   0  0  0  0  0  0  0  0  0  0  0  0
   -2.7720   -0.3540    0.5750 H   0  0  0  0  0  0  0  0  0  0  0  0
   -2.0540   -1.1910   -1.5270 H   0  0  0  0  0  0  0  0  0  0  0  0
    0.1250   -0.8000   -2.4620 H   0  0  0  0  0  0  0  0  0  0  0  0
   -0.9750    0.3180    2.5620 C   0  0  0  0  0  0  0  0  0  0  0  0
    0.2300    1.0900    3.0300 C   0  0  0  0  0  0  0  0  0  0  0  0
    1.3370    0.6200    3.6180 C   0  0  0  0  0  0  0  0  0  0  0  0
    1.6120   -0.7100    4.0860 C   0  0  0  0  0  0  0  0  0  0  0  0
    0.7020   -1.6510    4.4020 C   0  0  0  0  0  0  0  0  0  0  0  0
   -0.7270   -1.5250    4.3200 C   0  0  0  0  0  0  0  0  0  0  0  0
   -1.4530   -0.6760    3.5830 C   0  0  0  0  0  0  0  0  0  0  0  0
   -1.7880    1.0370    2.3920 H   0  0  0  0  0  0  0  0  0  0  0  0
    0.1930    2.1460    2.7960 H   0  0  0  0  0  0  0  0  0  0  0  0
    2.1420    1.3270    3.7880 H   0  0  0  0  0  0  0  0  0  0  0  0
    2.6560   -0.9270    4.2730 H   0  0  0  0  0  0  0  0  0  0  0  0
    1.0580   -2.5790    4.8310 H   0  0  0  0  0  0  0  0  0  0  0  0
   -1.2720   -2.2200    4.9460 H   0  0  0  0  0  0  0  0  0  0  0  0
   -2.5280   -0.7150    3.6870 H   0  0  0  0  0  0  0  0  0  0  0  0
  1  2  1  0
  2 97  1  1
  2  6  1  0
  3 98  1  6
  3  2  1  0
  3  8  1  0
  4  3  1  0
  5  1  1  0
  5  4  1  0
  6 66  1  0
  6  7  1  0
  7 10  2  0
  8 52  1  0
  8  7  1  0
  9  5  2  0
 11 12  1  0
 12 99  1  6
 12 13  1  0
 12 16  1  0
 13100  1  1
 13 18  1  0
 14 13  1  0
 15 14  1  0
 15 11  1  0
 16 52  1  0
 16 17  1  0
 17 20  2  0
 18 70  1  0
 18 17  1  0
 19 15  2  0
 21 22  1  0
 22101  1  6
 22 23  1  0
 22 26  1  0
 23102  1  1
 23 28  1  0
 24 23  1  0
 25 21  1  0
 25 24  1  0
 26 95  1  0
 26 27  1  0
 27 30  2  0
 28 53  1  0
 28 27  1  0
 29 25  2  0
 31 32  1  0
 32103  1  1
 32 36  1  0
 33 32  1  0
 33104  1  6
 33 38  1  0
 34 33  1  0
 35 34  1  0
 35 31  1  0
 36 83  1  0
 36 37  1  0
 37 40  2  0
 38 72  1  0
 38 37  1  0
 39 35  2  0
 41 42  1  0
 42105  1  1
 42 46  1  0
 43106  1  6
 43 42  1  0
 43 48  1  0
 44 43  1  0
 45 41  1  0
 45 44  1  0
 46 70  1  0
 46 47  1  0
 47 50  2  0
 48 72  1  0
 48 47  1  0
 49 45  2  0
 51107  1  0
 51 80  1  0
 51 24  1  0
 52109  1  0
 53111  1  0
 54114  1  0
 54 11  1  0
 54  4  1  0
 55 56  1  0
 56 57  1  0
 56115  1  1
 56 60  1  0
 57116  1  6
 57 62  1  0
 58 57  1  0
 59 55  1  0
 59 58  1  0
 60 66  1  0
 60 61  1  0
 61 64  2  0
 62 67  1  0
 62 61  1  0
 63 59  2  0
 65118  1  0
 65  1  1  0
 65 55  1  0
 66119  1  0
 67122  1  0
 68123  1  0
 68 92  1  0
 68 58  1  0
 69126  1  0
 69 14  1  0
 69 41  1  0
 70127  1  0
 71130  1  0
 71 34  1  0
 71 44  1  0
 72131  1  0
 73 83  1  0
 73 77  1  0
 74133  1  6
 74 75  1  0
 74 73  1  0
 75134  1  1
 75 76  1  0
 76 53  1  0
 76 77  1  0
 77 81  2  0
 78 74  1  0
 79 80  1  0
 79 78  1  0
 80 75  1  0
 82 79  2  0
 83135  1  0
 84138  1  0
 84 31  1  0
 84 78  1  0
 85 95  1  0
 85 89  1  0
 86139  1  6
 86 87  1  0
 86 85  1  0
 87140  1  1
 87 88  1  0
 88 67  1  0
 88 89  1  0
 89 93  2  0
 90 86  1  0
 91 92  1  0
 91 90  1  0
 92 87  1  0
 94 91  2  0
 95142  1  0
 96143  1  0
 96 90  1  0
 96 21  1  0
108 51  1  0
110 52  1  0
112 53  1  0
113 54  1  0
117 65  1  0
120 66  1  0
121 67  1  0
124 68  1  0
125 69  1  0
128 70  1  0
129 71  1  0
132 72  1  0
136 83  1  0
137 84  1  0
141 95  1  0
144 96  1  0
145160  1  0
146147  2  0
147154  1  0
147148  1  0
148149  2  0
149156  1  0
149150  1  0
150157  1  0
150145  1  0
151150  1  0
152146  1  0
152151  2  0
153146  1  0
155148  1  0
158151  1  0
159152  1  0
160167  1  0
160161  1  0
160166  1  0
161162  2  0
162169  1  0
162163  1  0
163170  1  0
163164  2  0
164171  1  0
165164  1  0
165172  1  0
166173  1  0
166165  2  0
168161  1  0
M  END
$$$$
optlog.xyz
     RDKit          3D

173198  0  0  1  0  0  0  0  0999 V2000
   -5.2520   -2.8849   -1.2197 N   0  0  0  0  0  0  0  0  0  0  0  0
   -5.5609   -3.5977   -0.0027 C   0  0  1  0  0  0  0  0  0  0  0  0
   -4.5429   -4.7721   -0.0049 C   0  0  1  0  0  0  0  0  0  0  0  0
   -3.7892   -4.5604   -1.2189 N   0  0  0  0  0  0  0  0  0  0  0  0
   -4.2397   -3.4773   -1.9399 C   0  0  0  0  0  0  0  0  0  0  0  0
   -5.2500   -2.8879    1.2165 N   0  0  0  0  0  0  0  0  0  0  0  0
   -4.2453   -3.4901    1.9396 C   0  0  0  0  0  0  0  0  0  0  0  0
   -3.7995   -4.5743    1.2172 N   0  0  0  0  0  0  0  0  0  0  0  0
   -3.8357   -3.1257   -3.0370 O   0  0  0  0  0  0  0  0  0  0  0  0
   -3.8438   -3.1443    3.0396 O   0  0  0  0  0  0  0  0  0  0  0  0
   -1.6327   -5.6618   -1.2192 N   0  0  0  0  0  0  0  0  0  0  0  0
   -1.3661   -6.3954   -0.0038 C   0  0  1  0  0  0  0  0  0  0  0  0
    0.1814   -6.5361    0.0006 C   0  0  1  0  0  0  0  0  0  0  0  0
    0.5814   -5.8762   -1.2195 N   0  0  0  0  0  0  0  0  0  0  0  0
   -0.4902   -5.4034   -1.9430 C   0  0  0  0  0  0  0  0  0  0  0  0
   -1.6411   -5.6751    1.2168 N   0  0  0  0  0  0  0  0  0  0  0  0
   -0.5017   -5.4039    1.9408 C   0  0  0  0  0  0  0  0  0  0  0  0
    0.5758   -5.8631    1.2164 N   0  0  0  0  0  0  0  0  0  0  0  0
   -0.4398   -4.8784   -3.0440 O   0  0  0  0  0  0  0  0  0  0  0  0
   -0.4572   -4.8790    3.0422 O   0  0  0  0  0  0  0  0  0  0  0  0
   -0.5748    5.8636   -1.2157 N   0  0  0  0  0  0  0  0  0  0  0  0
   -0.1813    6.5367    0.0003 C   0  0  2  0  0  0  0  0  0  0  0  0
    1.3662    6.3959    0.0060 C   0  0  2  0  0  0  0  0  0  0  0  0
    1.6421    5.6766   -1.2150 N   0  0  0  0  0  0  0  0  0  0  0  0
    0.5032    5.4046   -1.9393 C   0  0  0  0  0  0  0  0  0  0  0  0
   -0.5823    5.8768    1.2202 N   0  0  0  0  0  0  0  0  0  0  0  0
    0.4887    5.4031    1.9440 C   0  0  0  0  0  0  0  0  0  0  0  0
    1.6318    5.6612    1.2209 N   0  0  0  0  0  0  0  0  0  0  0  0
    0.4595    4.8794   -3.0405 O   0  0  0  0  0  0  0  0  0  0  0  0
    0.4374    4.8775    3.0448 O   0  0  0  0  0  0  0  0  0  0  0  0
    5.9872    0.5809   -1.2187 N   0  0  0  0  0  0  0  0  0  0  0  0
    6.6534    0.1784   -0.0020 C   0  0  2  0  0  0  0  0  0  0  0  0
    6.5031   -1.3690   -0.0038 C   0  0  2  0  0  0  0  0  0  0  0  0
    5.7771   -1.6328   -1.2239 N   0  0  0  0  0  0  0  0  0  0  0  0
    5.5094   -0.4890   -1.9410 C   0  0  0  0  0  0  0  0  0  0  0  0
    5.9914    0.5765    1.2181 N   0  0  0  0  0  0  0  0  0  0  0  0
    5.5131   -0.4950    1.9374 C   0  0  0  0  0  0  0  0  0  0  0  0
    5.7707   -1.6368    1.2122 N   0  0  0  0  0  0  0  0  0  0  0  0
    4.9749   -0.4358   -3.0375 O   0  0  0  0  0  0  0  0  0  0  0  0
    4.9849   -0.4453    3.0370 O   0  0  0  0  0  0  0  0  0  0  0  0
    2.9014   -5.1763   -1.2190 N   0  0  0  0  0  0  0  0  0  0  0  0
    3.5990   -5.5016    0.0026 C   0  0  1  0  0  0  0  0  0  0  0  0
    4.8059   -4.5222   -0.0005 C   0  0  1  0  0  0  0  0  0  0  0  0
    4.6164   -3.7594   -1.2129 N   0  0  0  0  0  0  0  0  0  0  0  0
    3.5245   -4.1818   -1.9381 C   0  0  0  0  0  0  0  0  0  0  0  0
    2.8945   -5.1617    1.2175 N   0  0  0  0  0  0  0  0  0  0  0  0
    3.5315   -4.1786    1.9414 C   0  0  0  0  0  0  0  0  0  0  0  0
    4.6338   -3.7759    1.2230 N   0  0  0  0  0  0  0  0  0  0  0  0
    3.1884   -3.7705   -3.0374 O   0  0  0  0  0  0  0  0  0  0  0  0
    3.1971   -3.7628    3.0395 O   0  0  0  0  0  0  0  0  0  0  0  0
    2.9587    5.5920   -1.7934 C   0  0  0  0  0  0  0  0  0  0  0  0
   -2.9574   -5.5895    1.7959 C   0  0  0  0  0  0  0  0  0  0  0  0
    2.9453    5.5701    1.8054 C   0  0  0  0  0  0  0  0  0  0  0  0
   -2.9467   -5.5721   -1.8031 C   0  0  0  0  0  0  0  0  0  0  0  0
   -5.9923   -0.5779   -1.2184 N   0  0  0  0  0  0  0  0  0  0  0  0
   -6.6538   -0.1784    0.0014 C   0  0  2  0  0  0  0  0  0  0  0  0
   -6.5030    1.3690    0.0015 C   0  0  2  0  0  0  0  0  0  0  0  0
   -5.7678    1.6349   -1.2134 N   0  0  0  0  0  0  0  0  0  0  0  0
   -5.5109    0.4923   -1.9373 C   0  0  0  0  0  0  0  0  0  0  0  0
   -5.9872   -0.5797    1.2184 N   0  0  0  0  0  0  0  0  0  0  0  0
   -5.5113    0.4910    1.9408 C   0  0  0  0  0  0  0  0  0  0  0  0
   -5.7794    1.6341    1.2227 N   0  0  0  0  0  0  0  0  0  0  0  0
   -4.9808    0.4411   -3.0359 O   0  0  0  0  0  0  0  0  0  0  0  0
   -4.9780    0.4389    3.0378 O   0  0  0  0  0  0  0  0  0  0  0  0
   -6.1251   -1.8924   -1.7917 C   0  0  0  0  0  0  0  0  0  0  0  0
   -6.1218   -1.8949    1.7904 C   0  0  0  0  0  0  0  0  0  0  0  0
   -5.6575    2.9501    1.7940 C   0  0  0  0  0  0  0  0  0  0  0  0
   -5.6645    2.9491   -1.7950 C   0  0  0  0  0  0  0  0  0  0  0  0
    1.8925   -6.0263   -1.7970 C   0  0  0  0  0  0  0  0  0  0  0  0
    1.8851   -6.0089    1.7994 C   0  0  0  0  0  0  0  0  0  0  0  0
    5.6547   -2.9482   -1.7966 C   0  0  0  0  0  0  0  0  0  0  0  0
    5.6684   -2.9516    1.7922 C   0  0  0  0  0  0  0  0  0  0  0  0
    5.2508    2.8834    1.2207 N   0  0  0  0  0  0  0  0  0  0  0  0
    5.5605    3.5975    0.0046 C   0  0  2  0  0  0  0  0  0  0  0  0
    4.5429    4.7721    0.0076 C   0  0  2  0  0  0  0  0  0  0  0  0
    3.7877    4.5588    1.2205 N   0  0  0  0  0  0  0  0  0  0  0  0
    4.2375    3.4748    1.9405 C   0  0  0  0  0  0  0  0  0  0  0  0
    5.2501    2.8890   -1.2154 N   0  0  0  0  0  0  0  0  0  0  0  0
    4.2464    3.4926   -1.9388 C   0  0  0  0  0  0  0  0  0  0  0  0
    3.8006    4.5762   -1.2156 N   0  0  0  0  0  0  0  0  0  0  0  0
    3.8323    3.1217    3.0366 O   0  0  0  0  0  0  0  0  0  0  0  0
    3.8457    3.1483   -3.0395 O   0  0  0  0  0  0  0  0  0  0  0  0
    6.1236    1.8906    1.7925 C   0  0  0  0  0  0  0  0  0  0  0  0
    6.1221    1.8964   -1.7898 C   0  0  0  0  0  0  0  0  0  0  0  0
   -2.9017    5.1756    1.2173 N   0  0  0  0  0  0  0  0  0  0  0  0
   -3.5988    5.5014   -0.0045 C   0  0  2  0  0  0  0  0  0  0  0  0
   -4.8055    4.5218   -0.0026 C   0  0  2  0  0  0  0  0  0  0  0  0
   -4.6181    3.7604    1.2110 N   0  0  0  0  0  0  0  0  0  0  0  0
   -3.5262    4.1819    1.9364 C   0  0  0  0  0  0  0  0  0  0  0  0
   -2.8937    5.1626   -1.2192 N   0  0  0  0  0  0  0  0  0  0  0  0
   -3.5291    4.1785   -1.9433 C   0  0  0  0  0  0  0  0  0  0  0  0
   -4.6310    3.7741   -1.2250 N   0  0  0  0  0  0  0  0  0  0  0  0
   -3.1911    3.7707    3.0360 O   0  0  0  0  0  0  0  0  0  0  0  0
   -3.1940    3.7631   -3.0414 O   0  0  0  0  0  0  0  0  0  0  0  0
   -1.8939    6.0261    1.7964 C   0  0  0  0  0  0  0  0  0  0  0  0
   -1.8836    6.0098   -1.7999 C   0  0  0  0  0  0  0  0  0  0  0  0
   -6.6089   -3.9161   -0.0025 H   0  0  0  0  0  0  0  0  0  0  0  0
   -5.0078   -5.7641   -0.0125 H   0  0  0  0  0  0  0  0  0  0  0  0
   -1.8991   -7.3524   -0.0108 H   0  0  0  0  0  0  0  0  0  0  0  0
    0.5332   -7.5736    0.0065 H   0  0  0  0  0  0  0  0  0  0  0  0
   -0.5332    7.5742   -0.0057 H   0  0  0  0  0  0  0  0  0  0  0  0
    1.8992    7.3529    0.0142 H   0  0  0  0  0  0  0  0  0  0  0  0
    7.6926    0.5250   -0.0030 H   0  0  0  0  0  0  0  0  0  0  0  0
    7.4560   -1.9093   -0.0019 H   0  0  0  0  0  0  0  0  0  0  0  0
    3.8841   -6.5594    0.0095 H   0  0  0  0  0  0  0  0  0  0  0  0
    5.7819   -5.0194   -0.0109 H   0  0  0  0  0  0  0  0  0  0  0  0
    3.4541    6.5641   -1.6823 H   0  0  0  0  0  0  0  0  0  0  0  0
    2.8408    5.3613   -2.8526 H   0  0  0  0  0  0  0  0  0  0  0  0
   -2.8388   -5.3574    2.8547 H   0  0  0  0  0  0  0  0  0  0  0  0
   -3.4530   -6.5617    1.6863 H   0  0  0  0  0  0  0  0  0  0  0  0
    2.8222    5.3289    2.8616 H   0  0  0  0  0  0  0  0  0  0  0  0
    3.4428    6.5427    1.7056 H   0  0  0  0  0  0  0  0  0  0  0  0
   -2.8243   -5.3321   -2.8596 H   0  0  0  0  0  0  0  0  0  0  0  0
   -3.4436   -6.5447   -1.7017 H   0  0  0  0  0  0  0  0  0  0  0  0
   -7.6930   -0.5246    0.0031 H   0  0  0  0  0  0  0  0  0  0  0  0
   -7.4557    1.9097   -0.0030 H   0  0  0  0  0  0  0  0  0  0  0  0
   -5.8900   -1.8161   -2.8536 H   0  0  0  0  0  0  0  0  0  0  0  0
   -7.1624   -2.2254   -1.6682 H   0  0  0  0  0  0  0  0  0  0  0  0
   -5.8854   -1.8203    2.8521 H   0  0  0  0  0  0  0  0  0  0  0  0
   -7.1599   -2.2263    1.6670 H   0  0  0  0  0  0  0  0  0  0  0  0
   -6.6150    3.4725    1.6802 H   0  0  0  0  0  0  0  0  0  0  0  0
   -5.4298    2.8313    2.8537 H   0  0  0  0  0  0  0  0  0  0  0  0
   -6.6268    3.4617   -1.6771 H   0  0  0  0  0  0  0  0  0  0  0  0
   -5.4432    2.8263   -2.8556 H   0  0  0  0  0  0  0  0  0  0  0  0
    1.8185   -5.7801   -2.8566 H   0  0  0  0  0  0  0  0  0  0  0  0
    2.2076   -7.0707   -1.6843 H   0  0  0  0  0  0  0  0  0  0  0  0
    1.8077   -5.7543    2.8567 H   0  0  0  0  0  0  0  0  0  0  0  0
    2.2011   -7.0544    1.6960 H   0  0  0  0  0  0  0  0  0  0  0  0
    5.4254   -2.8281   -2.8558 H   0  0  0  0  0  0  0  0  0  0  0  0
    6.6125   -3.4705   -1.6849 H   0  0  0  0  0  0  0  0  0  0  0  0
    5.4489   -2.8305    2.8534 H   0  0  0  0  0  0  0  0  0  0  0  0
    6.6304   -3.4640    1.6718 H   0  0  0  0  0  0  0  0  0  0  0  0
    6.6086    3.9157    0.0054 H   0  0  0  0  0  0  0  0  0  0  0  0
    5.0080    5.7641    0.0170 H   0  0  0  0  0  0  0  0  0  0  0  0
    5.8879    1.8135    2.8542 H   0  0  0  0  0  0  0  0  0  0  0  0
    7.1610    2.2238    1.6699 H   0  0  0  0  0  0  0  0  0  0  0  0
    5.8860    1.8225   -2.8517 H   0  0  0  0  0  0  0  0  0  0  0  0
    7.1602    2.2276   -1.6659 H   0  0  0  0  0  0  0  0  0  0  0  0
   -3.8842    6.5592   -0.0109 H   0  0  0  0  0  0  0  0  0  0  0  0
   -5.7816    5.0188    0.0055 H   0  0  0  0  0  0  0  0  0  0  0  0
   -2.2093    7.0704    1.6835 H   0  0  0  0  0  0  0  0  0  0  0  0
   -1.8208    5.7798    2.8561 H   0  0  0  0  0  0  0  0  0  0  0  0
   -2.1998    7.0552   -1.6964 H   0  0  0  0  0  0  0  0  0  0  0  0
   -1.8051    5.7556   -2.8572 H   0  0  0  0  0  0  0  0  0  0  0  0
   -0.7790    1.7350    2.0480 O   0  0  0  0  0  0  0  0  0  0  0  0
    0.2540   -0.4590    5.6640 C   0  0  0  0  0  0  0  0  0  0  0  0
    0.2700   -1.4720    4.7730 C   0  0  0  0  0  0  0  0  0  0  0  0
    0.6740   -1.3500    3.3980 C   0  0  0  0  0  0  0  0  0  0  0  0
    0.4850   -0.2680    2.6350 C   0  0  0  0  0  0  0  0  0  0  0  0
   -0.3410    0.9010    3.1060 C   0  0  0  0  0  0  0  0  0  0  0  0
    0.4700    1.5200    4.2080 C   0  0  0  0  0  0  0  0  0  0  0  0
    0.6500    0.8920    5.3760 C   0  0  0  0  0  0  0  0  0  0  0  0
    0.0610   -0.6870    6.7050 H   0  0  0  0  0  0  0  0  0  0  0  0
    0.0890   -2.4770    5.1270 H   0  0  0  0  0  0  0  0  0  0  0  0
    1.1790   -2.2080    2.9750 H   0  0  0  0  0  0  0  0  0  0  0  0
    0.8730   -0.2180    1.6280 H   0  0  0  0  0  0  0  0  0  0  0  0
   -1.2790    0.5120    3.5340 H   0  0  0  0  0  0  0  0  0  0  0  0
    0.8990    2.4970    4.0440 H   0  0  0  0  0  0  0  0  0  0  0  0
    1.1560    1.4160    6.1760 H   0  0  0  0  0  0  0  0  0  0  0  0
   -0.9230    1.2550    0.7230 C   0  0  0  0  0  0  0  0  0  0  0  0
   -0.7890    2.2340   -0.4090 C   0  0  0  0  0  0  0  0  0  0  0  0
   -0.5960    1.8170   -1.6650 C   0  0  0  0  0  0  0  0  0  0  0  0
   -0.6550    0.4520   -2.1090 C   0  0  0  0  0  0  0  0  0  0  0  0
   -1.4890   -0.4820   -1.6070 C   0  0  0  0  0  0  0  0  0  0  0  0
   -2.4340   -0.2550   -0.5470 C   0  0  0  0  0  0  0  0  0  0  0  0
   -2.2480    0.5790    0.4810 C   0  0  0  0  0  0  0  0  0  0  0  0
   -0.1280    0.4980    0.6310 H   0  0  0  0  0  0  0  0  0  0  0  0
   -0.8410    3.2880   -0.1860 H   0  0  0  0  0  0  0  0  0  0  0  0
   -0.4040    2.5550   -2.4330 H   0  0  0  0  0  0  0  0  0  0  0  0
   -0.0800    0.2130   -2.9950 H   0  0  0  0  0  0  0  0  0  0  0  0
   -1.5550   -1.4410   -2.1060 H   0  0  0  0  0  0  0  0  0  0  0  0
   -3.3640   -0.8020   -0.6180 H   0  0  0  0  0  0  0  0  0  0  0  0
   -3.0280    0.7560    1.2080 H   0  0  0  0  0  0  0  0  0  0  0  0
  1  2  1  0
  2 97  1  1
  2  6  1  0
  3 98  1  6
  3  2  1  0
  3  8  1  0
  4  3  1  0
  5  1  1  0
  5  4  1  0
  6 66  1  0
  6  7  1  0
  7 10  2  0
  8 52  1  0
  8  7  1  0
  9  5  2  0
 11 12  1  0
 12 99  1  6
 12 13  1  0
 12 16  1  0
 13100  1  1
 13 18  1  0
 14 13  1  0
 15 14  1  0
 15 11  1  0
 16 52  1  0
 16 17  1  0
 17 20  2  0
 18 70  1  0
 18 17  1  0
 19 15  2  0
 21 22  1  0
 22101  1  6
 22 23  1  0
 22 26  1  0
 23102  1  1
 23 28  1  0
 24 23  1  0
 25 21  1  0
 25 24  1  0
 26 95  1  0
 26 27  1  0
 27 30  2  0
 28 53  1  0
 28 27  1  0
 29 25  2  0
 31 32  1  0
 32103  1  1
 32 36  1  0
 33 32  1  0
 33104  1  6
 33 38  1  0
 34 33  1  0
 35 34  1  0
 35 31  1  0
 36 83  1  0
 36 37  1  0
 37 40  2  0
 38 72  1  0
 38 37  1  0
 39 35  2  0
 41 42  1  0
 42105  1  1
 42 46  1  0
 43106  1  6
 43 42  1  0
 43 48  1  0
 44 43  1  0
 45 41  1  0
 45 44  1  0
 46 70  1  0
 46 47  1  0
 47 50  2  0
 48 72  1  0
 48 47  1  0
 49 45  2  0
 51107  1  0
 51 80  1  0
 51 24  1  0
 52109  1  0
 53111  1  0
 54114  1  0
 54 11  1  0
 54  4  1  0
 55 56  1  0
 56 57  1  0
 56115  1  1
 56 60  1  0
 57116  1  6
 57 62  1  0
 58 57  1  0
 59 55  1  0
 59 58  1  0
 60 66  1  0
 60 61  1  0
 61 64  2  0
 62 67  1  0
 62 61  1  0
 63 59  2  0
 65118  1  0
 65  1  1  0
 65 55  1  0
 66119  1  0
 67122  1  0
 68123  1  0
 68 92  1  0
 68 58  1  0
 69126  1  0
 69 14  1  0
 69 41  1  0
 70127  1  0
 71130  1  0
 71 34  1  0
 71 44  1  0
 72131  1  0
 73 83  1  0
 73 77  1  0
 74133  1  6
 74 75  1  0
 74 73  1  0
 75134  1  1
 75 76  1  0
 76 53  1  0
 76 77  1  0
 77 81  2  0
 78 74  1  0
 79 80  1  0
 79 78  1  0
 80 75  1  0
 82 79  2  0
 83135  1  0
 84138  1  0
 84 31  1  0
 84 78  1  0
 85 95  1  0
 85 89  1  0
 86139  1  6
 86 87  1  0
 86 85  1  0
 87140  1  1
 87 88  1  0
 88 67  1  0
 88 89  1  0
 89 93  2  0
 90 86  1  0
 91 92  1  0
 91 90  1  0
 92 87  1  0
 94 91  2  0
 95142  1  0
 96143  1  0
 96 90  1  0
 96 21  1  0
108 51  1  0
110 52  1  0
112 53  1  0
113 54  1  0
117 65  1  0
120 66  1  0
121 67  1  0
124 68  1  0
125 69  1  0
128 70  1  0
129 71  1  0
132 72  1  0
136 83  1  0
137 84  1  0
141 95  1  0
144 96  1  0
145150  1  0
146153  1  0
147154  1  0
147146  2  0
148147  1  0
149150  1  0
149148  2  0
150157  1  0
150151  1  0
151152  2  0
152146  1  0
152159  1  0
155148  1  0
156149  1  0
158151  1  0
160167  1  0
160145  1  0
161168  1  0
161160  1  0
162161  2  0
163162  1  0
163164  2  0
164165  1  0
165166  2  0
166160  1  0
166173  1  0
169162  1  0
170163  1  0
171164  1  0
172165  1  0
M  END
$$$$
optlog.xyz
 OpenBabel08042512143D

173198  0  0  1  0  0  0  0  0999 V2000
   -1.1403   -5.4331    1.2800 N   0  0  0  0  0  0  0  0  0  0  0  0
   -1.6941   -6.0891    0.1149 C   0  0  1  0  0  0  0  0  0  0  0  0
   -3.1525   -5.5568    0.0647 C   0  0  1  0  0  0  0  0  0  0  0  0
   -3.2717   -4.7829    1.2731 N   0  0  0  0  0  0  0  0  0  0  0  0
   -2.1004   -4.7444    1.9950 C   0  0  0  0  0  0  0  0  0  0  0  0
   -1.1406   -5.6682   -1.1461 N   0  0  0  0  0  0  0  0  0  0  0  0
   -2.0300   -4.9350   -1.8986 C   0  0  0  0  0  0  0  0  0  0  0  0
   -3.1846   -4.7892   -1.1607 N   0  0  0  0  0  0  0  0  0  0  0  0
   -1.9418   -4.2137    3.0812 O   0  0  0  0  0  0  0  0  0  0  0  0
   -1.8369   -4.5099   -3.0258 O   0  0  0  0  0  0  0  0  0  0  0  0
   -5.1084   -3.2033    1.2393 N   0  0  0  0  0  0  0  0  0  0  0  0
   -5.8200   -3.2038   -0.0156 C   0  0  1  0  0  0  0  0  0  0  0  0
   -6.5073   -1.8080   -0.0379 C   0  0  1  0  0  0  0  0  0  0  0  0
   -6.0883   -1.2088    1.2056 N   0  0  0  0  0  0  0  0  0  0  0  0
   -5.3121   -2.0514    1.9660 C   0  0  0  0  0  0  0  0  0  0  0  0
   -4.9938   -3.1876   -1.2004 N   0  0  0  0  0  0  0  0  0  0  0  0
   -5.1607   -2.0402   -1.9468 C   0  0  0  0  0  0  0  0  0  0  0  0
   -5.9823   -1.1949   -1.2340 N   0  0  0  0  0  0  0  0  0  0  0  0
   -4.9048   -1.8358    3.0956 O   0  0  0  0  0  0  0  0  0  0  0  0
   -4.7014   -1.8352   -3.0564 O   0  0  0  0  0  0  0  0  0  0  0  0
    6.1017    1.3424    1.1966 N   0  0  0  0  0  0  0  0  0  0  0  0
    6.5560    1.9511   -0.0319 C   0  0  2  0  0  0  0  0  0  0  0  0
    5.8834    3.3563   -0.0080 C   0  0  2  0  0  0  0  0  0  0  0  0
    5.1591    3.3562    1.2414 N   0  0  0  0  0  0  0  0  0  0  0  0
    5.3279    2.1908    1.9537 C   0  0  0  0  0  0  0  0  0  0  0  0
    6.0475    1.3592   -1.2448 N   0  0  0  0  0  0  0  0  0  0  0  0
    5.2119    2.2004   -1.9405 C   0  0  0  0  0  0  0  0  0  0  0  0
    5.0690    3.3530   -1.2001 N   0  0  0  0  0  0  0  0  0  0  0  0
    4.8900    1.9638    3.0699 O   0  0  0  0  0  0  0  0  0  0  0  0
    4.7217    1.9873   -3.0364 O   0  0  0  0  0  0  0  0  0  0  0  0
   -1.2827    5.4824    1.2737 N   0  0  0  0  0  0  0  0  0  0  0  0
   -1.8276    6.1312    0.0998 C   0  0  2  0  0  0  0  0  0  0  0  0
   -3.2917    5.6149    0.0504 C   0  0  2  0  0  0  0  0  0  0  0  0
   -3.4231    4.8569    1.2669 N   0  0  0  0  0  0  0  0  0  0  0  0
   -2.2502    4.8023    1.9888 C   0  0  0  0  0  0  0  0  0  0  0  0
   -1.2747    5.6880   -1.1536 N   0  0  0  0  0  0  0  0  0  0  0  0
   -2.1600    4.9330   -1.8892 C   0  0  0  0  0  0  0  0  0  0  0  0
   -3.3283    4.8328   -1.1642 N   0  0  0  0  0  0  0  0  0  0  0  0
   -2.0998    4.2741    3.0763 O   0  0  0  0  0  0  0  0  0  0  0  0
   -1.9576    4.4619   -2.9956 O   0  0  0  0  0  0  0  0  0  0  0  0
   -6.1238    1.2143    1.1834 N   0  0  0  0  0  0  0  0  0  0  0  0
   -6.5994    1.8055   -0.0463 C   0  0  1  0  0  0  0  0  0  0  0  0
   -5.9632    3.2275   -0.0317 C   0  0  1  0  0  0  0  0  0  0  0  0
   -5.2504    3.2595    1.2236 N   0  0  0  0  0  0  0  0  0  0  0  0
   -5.3843    2.0928    1.9409 C   0  0  0  0  0  0  0  0  0  0  0  0
   -6.0816    1.2219   -1.2588 N   0  0  0  0  0  0  0  0  0  0  0  0
   -5.2582    2.0753   -1.9540 C   0  0  0  0  0  0  0  0  0  0  0  0
   -5.1390    3.2329   -1.2172 N   0  0  0  0  0  0  0  0  0  0  0  0
   -4.9476    1.8875    3.0618 O   0  0  0  0  0  0  0  0  0  0  0  0
   -4.7599    1.8671   -3.0471 O   0  0  0  0  0  0  0  0  0  0  0  0
    4.5655    4.5272    1.8325 C   0  0  0  0  0  0  0  0  0  0  0  0
   -4.4188   -4.3716   -1.7782 C   0  0  0  0  0  0  0  0  0  0  0  0
    4.4726    4.5329   -1.7632 C   0  0  0  0  0  0  0  0  0  0  0  0
   -4.5383   -4.3831    1.8327 C   0  0  0  0  0  0  0  0  0  0  0  0
    1.2790   -5.4084    1.2748 N   0  0  0  0  0  0  0  0  0  0  0  0
    1.8431   -6.0551    0.1089 C   0  0  2  0  0  0  0  0  0  0  0  0
    3.2902   -5.4926    0.0538 C   0  0  2  0  0  0  0  0  0  0  0  0
    3.4000   -4.7254    1.2669 N   0  0  0  0  0  0  0  0  0  0  0  0
    2.2294   -4.7064    1.9902 C   0  0  0  0  0  0  0  0  0  0  0  0
    1.2784   -5.6479   -1.1513 N   0  0  0  0  0  0  0  0  0  0  0  0
    2.1467   -4.8894   -1.9029 C   0  0  0  0  0  0  0  0  0  0  0  0
    3.2987   -4.7157   -1.1668 N   0  0  0  0  0  0  0  0  0  0  0  0
    2.0641   -4.1812    3.0780 O   0  0  0  0  0  0  0  0  0  0  0  0
    1.9403   -4.4667   -3.0287 O   0  0  0  0  0  0  0  0  0  0  0  0
    0.0752   -5.8813    1.9111 C   0  0  0  0  0  0  0  0  0  0  0  0
    0.0725   -6.2075   -1.7010 C   0  0  0  0  0  0  0  0  0  0  0  0
    4.5201   -4.2668   -1.7885 C   0  0  0  0  0  0  0  0  0  0  0  0
    4.6597   -4.2980    1.8212 C   0  0  0  0  0  0  0  0  0  0  0  0
   -6.6600   -0.0015    1.7406 C   0  0  0  0  0  0  0  0  0  0  0  0
   -6.5552   -0.0127   -1.8238 C   0  0  0  0  0  0  0  0  0  0  0  0
   -4.6947    4.4517    1.8096 C   0  0  0  0  0  0  0  0  0  0  0  0
   -4.5628    4.4213   -1.7831 C   0  0  0  0  0  0  0  0  0  0  0  0
    1.1461    5.7086   -1.1473 N   0  0  0  0  0  0  0  0  0  0  0  0
    1.6825    6.1633    0.1097 C   0  0  2  0  0  0  0  0  0  0  0  0
    3.1570    5.6764    0.0698 C   0  0  2  0  0  0  0  0  0  0  0  0
    3.2234    4.9129   -1.1544 N   0  0  0  0  0  0  0  0  0  0  0  0
    2.0575    4.9874   -1.8856 C   0  0  0  0  0  0  0  0  0  0  0  0
    1.1426    5.5052    1.2800 N   0  0  0  0  0  0  0  0  0  0  0  0
    2.1148    4.8322    1.9949 C   0  0  0  0  0  0  0  0  0  0  0  0
    3.2901    4.9038    1.2776 N   0  0  0  0  0  0  0  0  0  0  0  0
    1.8752    4.5232   -2.9985 O   0  0  0  0  0  0  0  0  0  0  0  0
    1.9665    4.2970    3.0792 O   0  0  0  0  0  0  0  0  0  0  0  0
   -0.0674    6.2258   -1.7209 C   0  0  0  0  0  0  0  0  0  0  0  0
   -0.0757    5.9440    1.9148 C   0  0  0  0  0  0  0  0  0  0  0  0
    6.0168   -1.0593   -1.2354 N   0  0  0  0  0  0  0  0  0  0  0  0
    6.5572   -1.6650   -0.0428 C   0  0  2  0  0  0  0  0  0  0  0  0
    5.9032   -3.0768   -0.0267 C   0  0  2  0  0  0  0  0  0  0  0  0
    5.0714   -3.0729   -1.2078 N   0  0  0  0  0  0  0  0  0  0  0  0
    5.2102   -1.9182   -1.9491 C   0  0  0  0  0  0  0  0  0  0  0  0
    6.1242   -1.0815    1.2036 N   0  0  0  0  0  0  0  0  0  0  0  0
    5.3691   -1.9461    1.9605 C   0  0  0  0  0  0  0  0  0  0  0  0
    5.1977   -3.1015    1.2313 N   0  0  0  0  0  0  0  0  0  0  0  0
    4.7426   -1.7164   -3.0556 O   0  0  0  0  0  0  0  0  0  0  0  0
    4.9538   -1.7431    3.0896 O   0  0  0  0  0  0  0  0  0  0  0  0
    6.5555    0.1419   -1.8181 C   0  0  0  0  0  0  0  0  0  0  0  0
    6.6672    0.1363    1.7452 C   0  0  0  0  0  0  0  0  0  0  0  0
   -1.6250   -7.1776    0.2195 H   0  0  0  0  0  0  0  0  0  0  0  0
   -3.9094   -6.3491    0.0410 H   0  0  0  0  0  0  0  0  0  0  0  0
   -6.5248   -4.0424   -0.0543 H   0  0  0  0  0  0  0  0  0  0  0  0
   -7.6011   -1.8565   -0.0861 H   0  0  0  0  0  0  0  0  0  0  0  0
    7.6509    1.9863   -0.0554 H   0  0  0  0  0  0  0  0  0  0  0  0
    6.5969    4.1875   -0.0346 H   0  0  0  0  0  0  0  0  0  0  0  0
   -1.7468    7.2203    0.1912 H   0  0  0  0  0  0  0  0  0  0  0  0
   -4.0394    6.4153    0.0149 H   0  0  0  0  0  0  0  0  0  0  0  0
   -7.6950    1.8124   -0.0646 H   0  0  0  0  0  0  0  0  0  0  0  0
   -6.6975    4.0398   -0.0731 H   0  0  0  0  0  0  0  0  0  0  0  0
    5.2577    5.3706    1.7238 H   0  0  0  0  0  0  0  0  0  0  0  0
    4.4144    4.3143    2.8912 H   0  0  0  0  0  0  0  0  0  0  0  0
   -4.2018   -4.1530   -2.8243 H   0  0  0  0  0  0  0  0  0  0  0  0
   -5.1456   -5.1922   -1.7194 H   0  0  0  0  0  0  0  0  0  0  0  0
    4.2740    4.3282   -2.8157 H   0  0  0  0  0  0  0  0  0  0  0  0
    5.1796    5.3680   -1.6799 H   0  0  0  0  0  0  0  0  0  0  0  0
   -4.3784   -4.1691    2.8899 H   0  0  0  0  0  0  0  0  0  0  0  0
   -5.2450   -5.2155    1.7293 H   0  0  0  0  0  0  0  0  0  0  0  0
    1.7967   -7.1447    0.2156 H   0  0  0  0  0  0  0  0  0  0  0  0
    4.0632   -6.2688    0.0199 H   0  0  0  0  0  0  0  0  0  0  0  0
    0.0736   -5.5020    2.9336 H   0  0  0  0  0  0  0  0  0  0  0  0
    0.0865   -6.9794    1.9265 H   0  0  0  0  0  0  0  0  0  0  0  0
    0.0683   -5.9938   -2.7701 H   0  0  0  0  0  0  0  0  0  0  0  0
    0.0821   -7.2928   -1.5441 H   0  0  0  0  0  0  0  0  0  0  0  0
    5.2657   -5.0709   -1.7390 H   0  0  0  0  0  0  0  0  0  0  0  0
    4.2916   -4.0477   -2.8321 H   0  0  0  0  0  0  0  0  0  0  0  0
    5.3858   -5.1123    1.7091 H   0  0  0  0  0  0  0  0  0  0  0  0
    4.5008   -4.0939    2.8804 H   0  0  0  0  0  0  0  0  0  0  0  0
   -6.4517    0.0102    2.8110 H   0  0  0  0  0  0  0  0  0  0  0  0
   -7.7445   -0.0181    1.5773 H   0  0  0  0  0  0  0  0  0  0  0  0
   -6.2898   -0.0114   -2.8815 H   0  0  0  0  0  0  0  0  0  0  0  0
   -7.6459   -0.0554   -1.7189 H   0  0  0  0  0  0  0  0  0  0  0  0
   -4.5515    4.2536    2.8722 H   0  0  0  0  0  0  0  0  0  0  0  0
   -5.4074    5.2753    1.6834 H   0  0  0  0  0  0  0  0  0  0  0  0
   -4.3484    4.2122   -2.8317 H   0  0  0  0  0  0  0  0  0  0  0  0
   -5.2885    5.2417   -1.7152 H   0  0  0  0  0  0  0  0  0  0  0  0
    1.5801    7.2506    0.1996 H   0  0  0  0  0  0  0  0  0  0  0  0
    3.8887    6.4920    0.0541 H   0  0  0  0  0  0  0  0  0  0  0  0
   -0.0623    5.9758   -2.7822 H   0  0  0  0  0  0  0  0  0  0  0  0
   -0.0776    7.3163   -1.6017 H   0  0  0  0  0  0  0  0  0  0  0  0
   -0.0749    5.5516    2.9324 H   0  0  0  0  0  0  0  0  0  0  0  0
   -0.0859    7.0423    1.9454 H   0  0  0  0  0  0  0  0  0  0  0  0
    7.6519   -1.6869   -0.0914 H   0  0  0  0  0  0  0  0  0  0  0  0
    6.6274   -3.8982   -0.0742 H   0  0  0  0  0  0  0  0  0  0  0  0
    7.6471    0.1290   -1.7142 H   0  0  0  0  0  0  0  0  0  0  0  0
    6.2892    0.1422   -2.8756 H   0  0  0  0  0  0  0  0  0  0  0  0
    7.7515    0.1469    1.5806 H   0  0  0  0  0  0  0  0  0  0  0  0
    6.4600    0.1358    2.8159 H   0  0  0  0  0  0  0  0  0  0  0  0
    2.5470    1.1469    0.2720 C   0  0  0  0  0  0  0  0  0  0  0  0
    2.7553    0.0280    1.1597 C   0  0  0  0  0  0  0  0  0  0  0  0
    2.2675   -1.2241    1.0384 C   0  0  0  0  0  0  0  0  0  0  0  0
    1.2198   -1.6449    0.0496 C   0  0  2  0  0  0  0  0  0  0  0  0
    1.6768   -1.3457   -1.3527 C   0  0  0  0  0  0  0  0  0  0  0  0
    2.0428   -0.1300   -1.8104 C   0  0  0  0  0  0  0  0  0  0  0  0
    2.2315    1.0785   -1.0462 C   0  0  0  0  0  0  0  0  0  0  0  0
    0.0047   -0.9928    0.4244 O   0  0  0  0  0  0  0  0  0  0  0  0
   -1.2099   -1.6620    0.0808 C   0  0  2  0  0  0  0  0  0  0  0  0
   -1.7074   -1.3713   -1.3093 C   0  0  0  0  0  0  0  0  0  0  0  0
   -2.0957   -0.1594   -1.7589 C   0  0  0  0  0  0  0  0  0  0  0  0
   -2.2740    1.0485   -0.9915 C   0  0  0  0  0  0  0  0  0  0  0  0
   -2.5592    1.1149    0.3336 C   0  0  0  0  0  0  0  0  0  0  0  0
   -2.7386   -0.0062    1.2247 C   0  0  0  0  0  0  0  0  0  0  0  0
   -2.2399   -1.2530    1.0928 C   0  0  0  0  0  0  0  0  0  0  0  0
    2.7773    2.1310    0.6758 H   0  0  0  0  0  0  0  0  0  0  0  0
    3.3941    0.2245    2.0187 H   0  0  0  0  0  0  0  0  0  0  0  0
    2.5789   -1.9651    1.7696 H   0  0  0  0  0  0  0  0  0  0  0  0
    1.0677   -2.7313    0.1368 H   0  0  0  0  0  0  0  0  0  0  0  0
    1.6696   -2.1740   -2.0579 H   0  0  0  0  0  0  0  0  0  0  0  0
    2.2500   -0.0412   -2.8747 H   0  0  0  0  0  0  0  0  0  0  0  0
    2.2374    2.0071   -1.6135 H   0  0  0  0  0  0  0  0  0  0  0  0
   -1.0416   -2.7461    0.1655 H   0  0  0  0  0  0  0  0  0  0  0  0
   -1.7144   -2.2012   -2.0128 H   0  0  0  0  0  0  0  0  0  0  0  0
   -2.3353   -0.0740   -2.8166 H   0  0  0  0  0  0  0  0  0  0  0  0
   -2.3001    1.9765   -1.5593 H   0  0  0  0  0  0  0  0  0  0  0  0
   -2.7887    2.0966    0.7433 H   0  0  0  0  0  0  0  0  0  0  0  0
   -3.3661    0.1829    2.0938 H   0  0  0  0  0  0  0  0  0  0  0  0
   -2.5294   -1.9984    1.8285 H   0  0  0  0  0  0  0  0  0  0  0  0
  1 65  1  0  0  0  0
  1  5  1  0  0  0  0
  2 97  1  1  0  0  0
  2  1  1  0  0  0  0
  3 98  1  6  0  0  0
  3  2  1  0  0  0  0
  3  4  1  0  0  0  0
  4 54  1  0  0  0  0
  4  5  1  0  0  0  0
  5  9  2  0  0  0  0
  6  2  1  0  0  0  0
  7  8  1  0  0  0  0
  7  6  1  0  0  0  0
  8  3  1  0  0  0  0
 10  7  2  0  0  0  0
 11 54  1  0  0  0  0
 11 15  1  0  0  0  0
 12 99  1  6  0  0  0
 12 11  1  0  0  0  0
 13100  1  6  0  0  0
 13 12  1  0  0  0  0
 13 14  1  0  0  0  0
 14 69  1  0  0  0  0
 14 15  1  0  0  0  0
 15 19  2  0  0  0  0
 16 12  1  0  0  0  0
 17 18  1  0  0  0  0
 17 16  1  0  0  0  0
 18 13  1  0  0  0  0
 20 17  2  0  0  0  0
 21 96  1  0  0  0  0
 21 25  1  0  0  0  0
 22101  1  6  0  0  0
 22 23  1  0  0  0  0
 22 21  1  0  0  0  0
 23102  1  6  0  0  0
 23 24  1  0  0  0  0
 24 51  1  0  0  0  0
 24 25  1  0  0  0  0
 25 29  2  0  0  0  0
 26 22  1  0  0  0  0
 27 26  1  0  0  0  0
 27 28  1  0  0  0  0
 28 23  1  0  0  0  0
 30 27  2  0  0  0  0
 31 84  1  0  0  0  0
 31 35  1  0  0  0  0
 32103  1  1  0  0  0
 32 31  1  0  0  0  0
 33104  1  6  0  0  0
 33 32  1  0  0  0  0
 33 34  1  0  0  0  0
 34 71  1  0  0  0  0
 34 35  1  0  0  0  0
 35 39  2  0  0  0  0
 36 32  1  0  0  0  0
 37 38  1  0  0  0  0
 37 36  1  0  0  0  0
 38 33  1  0  0  0  0
 40 37  2  0  0  0  0
 41 69  1  0  0  0  0
 41 45  1  0  0  0  0
 42105  1  6  0  0  0
 42 43  1  0  0  0  0
 42 41  1  0  0  0  0
 43106  1  6  0  0  0
 43 44  1  0  0  0  0
 44 71  1  0  0  0  0
 44 45  1  0  0  0  0
 45 49  2  0  0  0  0
 46 42  1  0  0  0  0
 47 46  1  0  0  0  0
 47 48  1  0  0  0  0
 48 43  1  0  0  0  0
 50 47  2  0  0  0  0
 51108  1  0  0  0  0
 52110  1  0  0  0  0
 52 16  1  0  0  0  0
 52  8  1  0  0  0  0
 53112  1  0  0  0  0
 53 28  1  0  0  0  0
 53 76  1  0  0  0  0
 54113  1  0  0  0  0
 55 65  1  0  0  0  0
 55 59  1  0  0  0  0
 56115  1  1  0  0  0
 56 55  1  0  0  0  0
 57116  1  6  0  0  0
 57 56  1  0  0  0  0
 57 58  1  0  0  0  0
 58 68  1  0  0  0  0
 58 59  1  0  0  0  0
 59 63  2  0  0  0  0
 60 56  1  0  0  0  0
 61 62  1  0  0  0  0
 61 60  1  0  0  0  0
 62 57  1  0  0  0  0
 64 61  2  0  0  0  0
 65118  1  0  0  0  0
 65117  1  0  0  0  0
 66120  1  0  0  0  0
 66 60  1  0  0  0  0
 66  6  1  0  0  0  0
 67121  1  0  0  0  0
 67 88  1  0  0  0  0
 67 62  1  0  0  0  0
 68124  1  0  0  0  0
 69125  1  0  0  0  0
 70128  1  0  0  0  0
 70 46  1  0  0  0  0
 70 18  1  0  0  0  0
 71129  1  0  0  0  0
 72132  1  0  0  0  0
 72 48  1  0  0  0  0
 72 38  1  0  0  0  0
 73 74  1  0  0  0  0
 74133  1  1  0  0  0
 74 78  1  0  0  0  0
 75134  1  6  0  0  0
 75 74  1  0  0  0  0
 75 80  1  0  0  0  0
 76 75  1  0  0  0  0
 77 76  1  0  0  0  0
 77 73  1  0  0  0  0
 78 84  1  0  0  0  0
 78 79  1  0  0  0  0
 79 82  2  0  0  0  0
 80 51  1  0  0  0  0
 80 79  1  0  0  0  0
 81 77  2  0  0  0  0
 83136  1  0  0  0  0
 83 36  1  0  0  0  0
 83 73  1  0  0  0  0
 84138  1  0  0  0  0
 84137  1  0  0  0  0
 85 86  1  0  0  0  0
 86139  1  6  0  0  0
 86 87  1  0  0  0  0
 86 90  1  0  0  0  0
 87140  1  6  0  0  0
 87 92  1  0  0  0  0
 88 87  1  0  0  0  0
 89 85  1  0  0  0  0
 89 88  1  0  0  0  0
 90 96  1  0  0  0  0
 90 91  1  0  0  0  0
 91 94  2  0  0  0  0
 92 68  1  0  0  0  0
 92 91  1  0  0  0  0
 93 89  2  0  0  0  0
 95141  1  0  0  0  0
 95 26  1  0  0  0  0
 95 85  1  0  0  0  0
 96144  1  0  0  0  0
107 51  1  0  0  0  0
109 52  1  0  0  0  0
111 53  1  0  0  0  0
114 54  1  0  0  0  0
119 66  1  0  0  0  0
122 67  1  0  0  0  0
123 68  1  0  0  0  0
126 69  1  0  0  0  0
127 70  1  0  0  0  0
130 71  1  0  0  0  0
131 72  1  0  0  0  0
135 83  1  0  0  0  0
142 95  1  0  0  0  0
143 96  1  0  0  0  0
145160  1  0  0  0  0
145146  1  0  0  0  0
146161  1  0  0  0  0
147146  2  0  0  0  0
147162  1  0  0  0  0
148163  1  1  0  0  0
148152  1  0  0  0  0
148147  1  0  0  0  0
149148  1  0  0  0  0
150149  2  0  0  0  0
150151  1  0  0  0  0
151145  2  0  0  0  0
153167  1  1  0  0  0
153152  1  0  0  0  0
153159  1  0  0  0  0
154153  1  0  0  0  0
155154  2  0  0  0  0
155156  1  0  0  0  0
156157  2  0  0  0  0
157171  1  0  0  0  0
157158  1  0  0  0  0
158172  1  0  0  0  0
159158  2  0  0  0  0
159173  1  0  0  0  0
164149  1  0  0  0  0
165150  1  0  0  0  0
166151  1  0  0  0  0
168154  1  0  0  0  0
169155  1  0  0  0  0
170156  1  0  0  0  0
M  END
$$$$
